14122946
  -OEChem-06222602063D

 45 44  0     0  0  0  0  0  0999 V2000
    3.4007   -0.9352   -0.6717 O   0  0  0  0  0  0  0  0  0  0  0  0
    2.1004   -1.6708    1.0862 O   0  0  0  0  0  0  0  0  0  0  0  0
    1.3569    1.0087    1.7544 C   0  0  0  0  0  0  0  0  0  0  0  0
    2.2908    0.7035    0.5819 C   0  0  0  0  0  0  0  0  0  0  0  0
   -0.8868    2.5005    0.4234 C   0  0  0  0  0  0  0  0  0  0  0  0
    1.1175    2.4824    1.9264 C   0  0  0  0  0  0  0  0  0  0  0  0
    0.1159    3.1485    1.3323 C   0  0  0  0  0  0  0  0  0  0  0  0
   -1.5625    0.9819   -2.0857 C   0  0  0  0  0  0  0  0  0  0  0  0
   -0.8516    3.1015   -0.9510 C   0  0  0  0  0  0  0  0  0  0  0  0
   -1.5255   -1.9678   -1.1516 C   0  0  0  0  0  0  0  0  0  0  0  0
   -1.1525    2.4257   -2.0702 C   0  0  0  0  0  0  0  0  0  0  0  0
   -0.4496   -0.0104   -2.2917 C   0  0  0  0  0  0  0  0  0  0  0  0
   -0.4087   -1.2934   -1.8972 C   0  0  0  0  0  0  0  0  0  0  0  0
   -1.1752   -2.4810    0.2204 C   0  0  0  0  0  0  0  0  0  0  0  0
   -2.7995   -1.0912    1.5309 C   0  0  0  0  0  0  0  0  0  0  0  0
    2.5571   -0.7744    0.3910 C   0  0  0  0  0  0  0  0  0  0  0  0
   -1.7122   -2.1173    1.3960 C   0  0  0  0  0  0  0  0  0  0  0  0
   -4.1792   -1.7256    1.4500 C   0  0  0  0  0  0  0  0  0  0  0  0
    3.7639   -2.2859   -0.9736 C   0  0  0  0  0  0  0  0  0  0  0  0
    1.8199    0.6410    2.6802 H   0  0  0  0  0  0  0  0  0  0  0  0
    0.4272    0.4362    1.6782 H   0  0  0  0  0  0  0  0  0  0  0  0
    1.8547    1.0853   -0.3483 H   0  0  0  0  0  0  0  0  0  0  0  0
    3.2553    1.1999    0.7435 H   0  0  0  0  0  0  0  0  0  0  0  0
   -0.7760    1.4180    0.3822 H   0  0  0  0  0  0  0  0  0  0  0  0
   -1.8791    2.6928    0.8508 H   0  0  0  0  0  0  0  0  0  0  0  0
    1.8083    3.0306    2.5614 H   0  0  0  0  0  0  0  0  0  0  0  0
    0.0170    4.2149    1.5201 H   0  0  0  0  0  0  0  0  0  0  0  0
   -2.1520    0.7529   -1.1944 H   0  0  0  0  0  0  0  0  0  0  0  0
   -2.2611    0.8667   -2.9254 H   0  0  0  0  0  0  0  0  0  0  0  0
   -0.6007    4.1558   -1.0457 H   0  0  0  0  0  0  0  0  0  0  0  0
   -1.8112   -2.8459   -1.7474 H   0  0  0  0  0  0  0  0  0  0  0  0
   -2.4330   -1.3601   -1.1308 H   0  0  0  0  0  0  0  0  0  0  0  0
   -1.0999    2.9429   -3.0248 H   0  0  0  0  0  0  0  0  0  0  0  0
    0.4085    0.3487   -2.8588 H   0  0  0  0  0  0  0  0  0  0  0  0
    0.4666   -1.8898   -2.1410 H   0  0  0  0  0  0  0  0  0  0  0  0
   -0.4002   -3.2459    0.2484 H   0  0  0  0  0  0  0  0  0  0  0  0
   -2.6845   -0.5954    2.5024 H   0  0  0  0  0  0  0  0  0  0  0  0
   -2.7067   -0.2984    0.7840 H   0  0  0  0  0  0  0  0  0  0  0  0
   -1.3608   -2.5972    2.3054 H   0  0  0  0  0  0  0  0  0  0  0  0
   -4.3114   -2.4870    2.2262 H   0  0  0  0  0  0  0  0  0  0  0  0
   -4.9528   -0.9638    1.5903 H   0  0  0  0  0  0  0  0  0  0  0  0
   -4.3452   -2.1987    0.4765 H   0  0  0  0  0  0  0  0  0  0  0  0
    4.4203   -2.2744   -1.8477 H   0  0  0  0  0  0  0  0  0  0  0  0
    2.8728   -2.8746   -1.2114 H   0  0  0  0  0  0  0  0  0  0  0  0
    4.3061   -2.7280   -0.1324 H   0  0  0  0  0  0  0  0  0  0  0  0
  1 16  1  0  0  0  0
  1 19  1  0  0  0  0
  2 16  2  0  0  0  0
  3  4  1  0  0  0  0
  3  6  1  0  0  0  0
  3 20  1  0  0  0  0
  3 21  1  0  0  0  0
  4 16  1  0  0  0  0
  4 22  1  0  0  0  0
  4 23  1  0  0  0  0
  5  7  1  0  0  0  0
  5  9  1  0  0  0  0
  5 24  1  0  0  0  0
  5 25  1  0  0  0  0
  6  7  2  0  0  0  0
  6 26  1  0  0  0  0
  7 27  1  0  0  0  0
  8 11  1  0  0  0  0
  8 12  1  0  0  0  0
  8 28  1  0  0  0  0
  8 29  1  0  0  0  0
  9 11  2  0  0  0  0
  9 30  1  0  0  0  0
 10 13  1  0  0  0  0
 10 14  1  0  0  0  0
 10 31  1  0  0  0  0
 10 32  1  0  0  0  0
 11 33  1  0  0  0  0
 12 13  2  0  0  0  0
 12 34  1  0  0  0  0
 13 35  1  0  0  0  0
 14 17  2  0  0  0  0
 14 36  1  0  0  0  0
 15 17  1  0  0  0  0
 15 18  1  0  0  0  0
 15 37  1  0  0  0  0
 15 38  1  0  0  0  0
 17 39  1  0  0  0  0
 18 40  1  0  0  0  0
 18 41  1  0  0  0  0
 18 42  1  0  0  0  0
 19 43  1  0  0  0  0
 19 44  1  0  0  0  0
 19 45  1  0  0  0  0
M  END
> <PUBCHEM_COMPOUND_CID>
14122946

> <PUBCHEM_CONFORMER_RMSD>
1.4

> <PUBCHEM_CONFORMER_DIVERSEORDER>
1
25
68
81
12
92
59
5
58
48
67
32
2
64
45
55
46
44
70
29
42
49
10
73
83
37
57
39
72
88
47
84
14
43
52
89
21
35
27
23
79
24
77
31
6
3
86
69
28
36
53
80
62
16
38
75
17
93
60
50
33
11
90
78
26
74
20
34
65
56
19
7
63
15
85
76
61
8
18
71
40
82
66
91
9
4
13
54
51
87
30
41
22

> <PUBCHEM_MMFF94_PARTIAL_CHARGES>
26
1 -0.43
10 0.28
11 -0.29
12 -0.29
13 -0.29
14 -0.29
15 0.14
16 0.66
17 -0.29
19 0.28
2 -0.57
26 0.15
27 0.15
3 0.14
30 0.15
33 0.15
34 0.15
35 0.15
36 0.15
39 0.15
4 0.06
5 0.28
6 -0.29
7 -0.29
8 0.28
9 -0.29

> <PUBCHEM_EFFECTIVE_ROTOR_COUNT>
11

> <PUBCHEM_PHARMACOPHORE_FEATURES>
2
1 18 hydrophobe
1 2 acceptor

> <PUBCHEM_HEAVY_ATOM_COUNT>
19

> <PUBCHEM_ATOM_DEF_STEREO_COUNT>
0

> <PUBCHEM_ATOM_UDEF_STEREO_COUNT>
0

> <PUBCHEM_BOND_DEF_STEREO_COUNT>
4

> <PUBCHEM_BOND_UDEF_STEREO_COUNT>
0

> <PUBCHEM_ISOTOPIC_ATOM_COUNT>
0

> <PUBCHEM_COMPONENT_COUNT>
1

> <PUBCHEM_CACTVS_TAUTO_COUNT>
1

> <PUBCHEM_CONFORMER_ID>
00D77FC200000001

> <PUBCHEM_MMFF94_ENERGY>
15.4556

> <PUBCHEM_FEATURE_SELFOVERLAP>
10.148

> <PUBCHEM_SHAPE_FINGERPRINT>
11112662 9 15578086703672551077
12156800 1 17408579061645430757
14251739 40 17982161525089990775
17859628 37 17916325946761805435
20600515 1 18050324506780965407
20645476 183 17903353711061640404
23419403 2 18411697716738236453
35225 105 18118684309980720311
445580 2 18335123303316471189
445580 42 18051400782983985850
539174 4 17409355613133270997
576247 118 17679008537922290405
6287921 2 17257945212947751962

> <PUBCHEM_SHAPE_MULTIPOLES>
379.27
4.86
4.33
2.64
1.53
2.11
0.8
-4.55
-2.35
-1.68
0.37
0.88
0.89
1.91

> <PUBCHEM_SHAPE_SELFOVERLAP>
715.7

> <PUBCHEM_SHAPE_VOLUME>
233.3

> <PUBCHEM_COORDINATE_TYPE>
2
5
10

$$$$
