91694372
  -OEChem-06142607063D

 53 52  0     0  0  0  0  0  0999 V2000
    3.7210   -0.7890    2.0584 O   0  0  0  0  0  0  0  0  0  0  0  0
    4.9012    0.7770    0.8455 O   0  0  0  0  0  0  0  0  0  0  0  0
   -2.6764   -2.1724   -0.2185 C   0  0  0  0  0  0  0  0  0  0  0  0
   -0.6169    2.3953   -0.7231 C   0  0  0  0  0  0  0  0  0  0  0  0
   -1.3200   -2.8575   -0.4242 C   0  0  0  0  0  0  0  0  0  0  0  0
    0.4685    1.6309   -1.4884 C   0  0  0  0  0  0  0  0  0  0  0  0
   -3.0394   -1.8467    1.2351 C   0  0  0  0  0  0  0  0  0  0  0  0
   -2.0159    2.0338   -1.2261 C   0  0  0  0  0  0  0  0  0  0  0  0
   -1.0149   -3.1798   -1.8869 C   0  0  0  0  0  0  0  0  0  0  0  0
    1.8893    2.0146   -1.0600 C   0  0  0  0  0  0  0  0  0  0  0  0
   -4.3464   -1.1196    1.3604 C   0  0  0  0  0  0  0  0  0  0  0  0
   -3.0663    2.8194   -0.4972 C   0  0  0  0  0  0  0  0  0  0  0  0
   -3.2773    1.1459    1.3562 C   0  0  0  0  0  0  0  0  0  0  0  0
    0.3363   -3.8630   -2.0310 C   0  0  0  0  0  0  0  0  0  0  0  0
   -4.4539    0.2165    1.4146 C   0  0  0  0  0  0  0  0  0  0  0  0
   -3.6295    2.4246    0.6542 C   0  0  0  0  0  0  0  0  0  0  0  0
    2.9523    1.3104   -1.8523 C   0  0  0  0  0  0  0  0  0  0  0  0
    3.5184    0.1570   -1.4675 C   0  0  0  0  0  0  0  0  0  0  0  0
    3.1642   -0.5694   -0.2080 C   0  0  0  0  0  0  0  0  0  0  0  0
    4.0505   -0.0991    0.9257 C   0  0  0  0  0  0  0  0  0  0  0  0
    4.4551   -0.4289    3.2331 C   0  0  0  0  0  0  0  0  0  0  0  0
   -2.6908   -1.2512   -0.8122 H   0  0  0  0  0  0  0  0  0  0  0  0
   -3.4600   -2.8160   -0.6402 H   0  0  0  0  0  0  0  0  0  0  0  0
   -0.5252    2.1735    0.3472 H   0  0  0  0  0  0  0  0  0  0  0  0
   -0.4498    3.4738   -0.8401 H   0  0  0  0  0  0  0  0  0  0  0  0
   -0.5312   -2.2085   -0.0234 H   0  0  0  0  0  0  0  0  0  0  0  0
   -1.2978   -3.7831    0.1643 H   0  0  0  0  0  0  0  0  0  0  0  0
    0.3168    0.5535   -1.3451 H   0  0  0  0  0  0  0  0  0  0  0  0
    0.3530    1.8234   -2.5629 H   0  0  0  0  0  0  0  0  0  0  0  0
   -2.2207   -1.3007    1.7163 H   0  0  0  0  0  0  0  0  0  0  0  0
   -3.1218   -2.7846    1.7994 H   0  0  0  0  0  0  0  0  0  0  0  0
   -2.0952    2.2775   -2.2933 H   0  0  0  0  0  0  0  0  0  0  0  0
   -2.1909    0.9564   -1.1645 H   0  0  0  0  0  0  0  0  0  0  0  0
   -1.7958   -3.8318   -2.2946 H   0  0  0  0  0  0  0  0  0  0  0  0
   -1.0192   -2.2570   -2.4784 H   0  0  0  0  0  0  0  0  0  0  0  0
    2.0110    1.8497    0.0165 H   0  0  0  0  0  0  0  0  0  0  0  0
    2.0300    3.0938   -1.2022 H   0  0  0  0  0  0  0  0  0  0  0  0
   -5.2500   -1.7213    1.4097 H   0  0  0  0  0  0  0  0  0  0  0  0
   -3.3664    3.7713   -0.9273 H   0  0  0  0  0  0  0  0  0  0  0  0
   -3.0114    1.4123    2.3875 H   0  0  0  0  0  0  0  0  0  0  0  0
   -2.3889    0.6753    0.9348 H   0  0  0  0  0  0  0  0  0  0  0  0
    1.1417   -3.2211   -1.6596 H   0  0  0  0  0  0  0  0  0  0  0  0
    0.5377   -4.0855   -3.0836 H   0  0  0  0  0  0  0  0  0  0  0  0
    0.3618   -4.8047   -1.4736 H   0  0  0  0  0  0  0  0  0  0  0  0
   -5.4452    0.6455    1.5417 H   0  0  0  0  0  0  0  0  0  0  0  0
   -4.3735    3.0683    1.1172 H   0  0  0  0  0  0  0  0  0  0  0  0
    3.2611    1.7615   -2.7912 H   0  0  0  0  0  0  0  0  0  0  0  0
    4.2822   -0.2858   -2.1016 H   0  0  0  0  0  0  0  0  0  0  0  0
    2.1154   -0.4323    0.0711 H   0  0  0  0  0  0  0  0  0  0  0  0
    3.3323   -1.6410   -0.3626 H   0  0  0  0  0  0  0  0  0  0  0  0
    4.0983   -1.0485    4.0601 H   0  0  0  0  0  0  0  0  0  0  0  0
    4.2805    0.6224    3.4814 H   0  0  0  0  0  0  0  0  0  0  0  0
    5.5224   -0.6200    3.0863 H   0  0  0  0  0  0  0  0  0  0  0  0
  1 20  1  0  0  0  0
  1 21  1  0  0  0  0
  2 20  2  0  0  0  0
  3  5  1  0  0  0  0
  3  7  1  0  0  0  0
  3 22  1  0  0  0  0
  3 23  1  0  0  0  0
  4  6  1  0  0  0  0
  4  8  1  0  0  0  0
  4 24  1  0  0  0  0
  4 25  1  0  0  0  0
  5  9  1  0  0  0  0
  5 26  1  0  0  0  0
  5 27  1  0  0  0  0
  6 10  1  0  0  0  0
  6 28  1  0  0  0  0
  6 29  1  0  0  0  0
  7 11  1  0  0  0  0
  7 30  1  0  0  0  0
  7 31  1  0  0  0  0
  8 12  1  0  0  0  0
  8 32  1  0  0  0  0
  8 33  1  0  0  0  0
  9 14  1  0  0  0  0
  9 34  1  0  0  0  0
  9 35  1  0  0  0  0
 10 17  1  0  0  0  0
 10 36  1  0  0  0  0
 10 37  1  0  0  0  0
 11 15  2  0  0  0  0
 11 38  1  0  0  0  0
 12 16  2  0  0  0  0
 12 39  1  0  0  0  0
 13 15  1  0  0  0  0
 13 16  1  0  0  0  0
 13 40  1  0  0  0  0
 13 41  1  0  0  0  0
 14 42  1  0  0  0  0
 14 43  1  0  0  0  0
 14 44  1  0  0  0  0
 15 45  1  0  0  0  0
 16 46  1  0  0  0  0
 17 18  2  0  0  0  0
 17 47  1  0  0  0  0
 18 19  1  0  0  0  0
 18 48  1  0  0  0  0
 19 20  1  0  0  0  0
 19 49  1  0  0  0  0
 19 50  1  0  0  0  0
 21 51  1  0  0  0  0
 21 52  1  0  0  0  0
 21 53  1  0  0  0  0
M  END
> <PUBCHEM_COMPOUND_CID>
91694372

> <PUBCHEM_CONFORMER_RMSD>
1.4

> <PUBCHEM_CONFORMER_DIVERSEORDER>
3
120
87
21
100
97
136
138
33
137
24
113
134
66
135
122
36
20
96
42
99
48
51
124
112
29
76
107
39
16
95
70
45
104
110
30
9
131
130
41
79
60
128
11
40
117
129
18
50
15
123
43
114
59
14
125
23
80
109
84
31
68
119
4
34
28
101
22
71
65
77
10
74
52
35
62
56
132
7
88
118
73
1
86
75
57
121
67
116
5
38
47
12
37
98
108
102
83
93
58
72
61
55
82
49
126
6
81
25
105
78
92
19
91
94
64
103
115
106
54
127
133
8
44
53
63
69
111
85
32
90
26
46
89
13
27
2
17

> <PUBCHEM_MMFF94_PARTIAL_CHARGES>
21
1 -0.43
10 0.14
11 -0.29
12 -0.29
13 0.28
15 -0.29
16 -0.29
17 -0.29
18 -0.29
19 0.2
2 -0.57
20 0.66
21 0.28
38 0.15
39 0.15
45 0.15
46 0.15
47 0.15
48 0.15
7 0.14
8 0.14

> <PUBCHEM_EFFECTIVE_ROTOR_COUNT>
14

> <PUBCHEM_PHARMACOPHORE_FEATURES>
5
1 14 hydrophobe
1 2 acceptor
3 4 8 12 hydrophobe
3 6 10 17 hydrophobe
5 3 5 7 9 11 hydrophobe

> <PUBCHEM_HEAVY_ATOM_COUNT>
21

> <PUBCHEM_ATOM_DEF_STEREO_COUNT>
0

> <PUBCHEM_ATOM_UDEF_STEREO_COUNT>
0

> <PUBCHEM_BOND_DEF_STEREO_COUNT>
3

> <PUBCHEM_BOND_UDEF_STEREO_COUNT>
0

> <PUBCHEM_ISOTOPIC_ATOM_COUNT>
0

> <PUBCHEM_COMPONENT_COUNT>
1

> <PUBCHEM_CACTVS_TAUTO_COUNT>
1

> <PUBCHEM_CONFORMER_ID>
0577252400000003

> <PUBCHEM_MMFF94_ENERGY>
10.9587

> <PUBCHEM_FEATURE_SELFOVERLAP>
25.374

> <PUBCHEM_SHAPE_FINGERPRINT>
12410352 35 17894920636927848569
14251764 3 16773248318018252107
15403338 16 17531246201501172243
23598288 3 18187643626111678478
238918 7 18270121193077927767
3459 110 17985530381108833792
445580 8 18408890662930441122
7064713 232 18269850752230727625
9862522 239 18411700963601701855

> <PUBCHEM_SHAPE_MULTIPOLES>
420.43
10.09
4.4
2.64
4.86
2.85
-1.38
-1.7
-7.54
-3.76
3.13
2.92
0.95
-0.65

> <PUBCHEM_SHAPE_SELFOVERLAP>
786.788

> <PUBCHEM_SHAPE_VOLUME>
261.1

> <PUBCHEM_COORDINATE_TYPE>
2
5
10

$$$$
