
     RDKit          3D

 53 52  0  0  0  0  0  0  0  0999 V2000
   53.6210   39.8210   21.5460 C   0  0  0  0  0  0  0  0  0  0  0  0
   53.7670   40.7440   20.3450 C   0  0  0  0  0  0  0  0  0  0  0  0
   55.2380   41.0440   20.0500 C   0  0  0  0  0  0  0  0  0  0  0  0
   55.6470   42.4810   20.3870 C   0  0  0  0  0  0  0  0  0  0  0  0
   54.4840   43.4740   20.3280 C   0  0  0  0  0  0  0  0  0  0  0  0
   54.6600   44.4500   19.2000 C   0  0  0  0  0  0  0  0  0  0  0  0
   54.6530   44.2680   17.8670 C   0  0  0  0  0  0  0  0  0  0  0  0
   54.4960   43.0710   16.9660 C   0  0  0  0  0  0  0  0  0  0  0  0
   53.1290   42.7990   16.4240 C   0  0  0  0  0  0  0  0  0  0  0  0
   52.2390   43.6880   15.9450 C   0  0  0  0  0  0  0  0  0  0  0  0
   52.3810   45.1790   15.8530 C   0  0  0  0  0  0  0  0  0  0  0  0
   51.5030   45.8670   16.8570 C   0  0  0  0  0  0  0  0  0  0  0  0
   51.7460   47.0030   17.5310 C   0  0  0  0  0  0  0  0  0  0  0  0
   52.9670   47.8720   17.4440 C   0  0  0  0  0  0  0  0  0  0  0  0
   53.3090   48.5630   18.7680 C   0  0  0  0  0  0  0  0  0  0  0  0
   54.5360   47.9730   19.4650 C   0  0  0  0  0  0  0  0  0  0  0  0
   54.2730   47.7500   20.9510 C   0  0  0  0  0  0  0  0  0  0  0  0
   55.5270   47.9840   21.7520 C   0  0  0  0  0  0  0  0  0  0  0  0
   56.4270   47.1640   21.8760 O   0  0  0  0  0  0  0  0  0  0  0  0
   55.4970   49.2160   22.3280 O   0  0  0  0  0  0  0  0  0  0  0  0
   54.5070   49.3540   23.3500 C   0  0  0  0  0  0  0  0  0  0  0  0
   53.7137   40.4071   22.4723 H   0  0  0  0  0  0  0  0  0  0  0  0
   52.6348   39.3347   21.5170 H   0  0  0  0  0  0  0  0  0  0  0  0
   54.4090   39.0540   21.5170 H   0  0  0  0  0  0  0  0  0  0  0  0
   53.3163   40.2613   19.4653 H   0  0  0  0  0  0  0  0  0  0  0  0
   53.2580   41.6924   20.5721 H   0  0  0  0  0  0  0  0  0  0  0  0
   55.8594   40.3568   20.6430 H   0  0  0  0  0  0  0  0  0  0  0  0
   55.3852   40.9105   18.9681 H   0  0  0  0  0  0  0  0  0  0  0  0
   56.0660   42.4948   21.4040 H   0  0  0  0  0  0  0  0  0  0  0  0
   56.3810   42.7955   19.6305 H   0  0  0  0  0  0  0  0  0  0  0  0
   53.5458   42.9193   20.1795 H   0  0  0  0  0  0  0  0  0  0  0  0
   54.4570   44.0355   21.2735 H   0  0  0  0  0  0  0  0  0  0  0  0
   54.8222   45.4905   19.5178 H   0  0  0  0  0  0  0  0  0  0  0  0
   54.7938   45.2053   17.3088 H   0  0  0  0  0  0  0  0  0  0  0  0
   55.1703   43.2115   16.1083 H   0  0  0  0  0  0  0  0  0  0  0  0
   54.7265   42.2042   17.6028 H   0  0  0  0  0  0  0  0  0  0  0  0
   52.8127   41.7455   16.4158 H   0  0  0  0  0  0  0  0  0  0  0  0
   51.2909   43.2701   15.5755 H   0  0  0  0  0  0  0  0  0  0  0  0
   53.4290   45.4528   16.0445 H   0  0  0  0  0  0  0  0  0  0  0  0
   52.0767   45.4980   14.8452 H   0  0  0  0  0  0  0  0  0  0  0  0
   50.5395   45.3797   17.0673 H   0  0  0  0  0  0  0  0  0  0  0  0
   50.9606   47.3345   18.2262 H   0  0  0  0  0  0  0  0  0  0  0  0
   53.8211   47.2467   17.1447 H   0  0  0  0  0  0  0  0  0  0  0  0
   52.7559   48.6611   16.7073 H   0  0  0  0  0  0  0  0  0  0  0  0
   53.5014   49.6270   18.5659 H   0  0  0  0  0  0  0  0  0  0  0  0
   52.4519   48.4146   19.4413 H   0  0  0  0  0  0  0  0  0  0  0  0
   54.7861   47.0097   18.9965 H   0  0  0  0  0  0  0  0  0  0  0  0
   55.3699   48.6829   19.3618 H   0  0  0  0  0  0  0  0  0  0  0  0
   53.4927   48.4479   21.2888 H   0  0  0  0  0  0  0  0  0  0  0  0
   53.9449   46.7109   21.1012 H   0  0  0  0  0  0  0  0  0  0  0  0
   54.9874   49.2870   24.3373 H   0  0  0  0  0  0  0  0  0  0  0  0
   54.0099   50.3301   23.2496 H   0  0  0  0  0  0  0  0  0  0  0  0
   53.7619   48.5510   23.2496 H   0  0  0  0  0  0  0  0  0  0  0  0
  1  2  1  0
  2  3  1  0
  3  4  1  0
  4  5  1  0
  5  6  1  0
  6  7  2  0
  7  8  1  0
  8  9  1  0
  9 10  2  0
 10 11  1  0
 11 12  1  0
 12 13  2  0
 13 14  1  0
 14 15  1  0
 15 16  1  0
 16 17  1  0
 17 18  1  0
 18 19  2  0
 18 20  1  0
 20 21  1  0
  1 22  1  0
  1 23  1  0
  1 24  1  0
  2 25  1  0
  2 26  1  0
  3 27  1  0
  3 28  1  0
  4 29  1  0
  4 30  1  0
  5 31  1  0
  5 32  1  0
  6 33  1  0
  7 34  1  0
  8 35  1  0
  8 36  1  0
  9 37  1  0
 10 38  1  0
 11 39  1  0
 11 40  1  0
 12 41  1  0
 13 42  1  0
 14 43  1  0
 14 44  1  0
 15 45  1  0
 15 46  1  0
 16 47  1  0
 16 48  1  0
 17 49  1  0
 17 50  1  0
 21 51  1  0
 21 52  1  0
 21 53  1  0
M  END
>  <meeko>  (1) 
{"is_sidechain": false}

$$$$
