glucose_core
     RDKit          3D

 24 24  0  0  0  0  0  0  0  0999 V2000
   51.8483   46.1438   19.7618 C   0  0  0  0  0  0  0  0  0  0  0  0
   53.1096   45.2768   19.8175 C   0  0  2  0  0  0  0  0  0  0  0  0
   54.3792   46.0968   19.5373 C   0  0  2  0  0  0  0  0  0  0  0  0
   55.5870   45.1540   19.4673 C   0  0  1  0  0  0  0  0  0  0  0  0
   55.3330   44.0241   18.4741 C   0  0  2  0  0  0  0  0  0  0  0  0
   54.0222   43.3085   18.8423 C   0  0  1  0  0  0  0  0  0  0  0  0
   52.9450   44.2421   18.8310 O   0  0  0  0  0  0  0  0  0  0  0  0
   53.7533   42.2839   17.8934 O   0  0  0  0  0  0  0  0  0  0  0  0
   56.4294   43.1005   18.4757 O   0  0  0  0  0  0  0  0  0  0  0  0
   56.7591   45.8795   19.0636 O   0  0  0  0  0  0  0  0  0  0  0  0
   54.6452   47.0647   20.5567 O   0  0  0  0  0  0  0  0  0  0  0  0
   50.7005   45.3387   20.0262 O   0  0  0  0  0  0  0  0  0  0  0  0
   51.7159   46.5850   18.7684 H   0  0  0  0  0  0  0  0  0  0  0  0
   51.8758   46.9459   20.5044 H   0  0  0  0  0  0  0  0  0  0  0  0
   53.1566   44.8072   20.8091 H   0  0  0  0  0  0  0  0  0  0  0  0
   54.2960   46.6349   18.5844 H   0  0  0  0  0  0  0  0  0  0  0  0
   55.8188   44.7456   20.4591 H   0  0  0  0  0  0  0  0  0  0  0  0
   55.2704   44.4257   17.4549 H   0  0  0  0  0  0  0  0  0  0  0  0
   54.0939   42.8230   19.8227 H   0  0  0  0  0  0  0  0  0  0  0  0
   54.6233   42.0186   17.5401 H   0  0  0  0  0  0  0  0  0  0  0  0
   57.2316   43.6603   18.4271 H   0  0  0  0  0  0  0  0  0  0  0  0
   56.8036   46.6486   19.6670 H   0  0  0  0  0  0  0  0  0  0  0  0
   54.0122   47.7983   20.4550 H   0  0  0  0  0  0  0  0  0  0  0  0
   50.7893   44.5543   19.4475 H   0  0  0  0  0  0  0  0  0  0  0  0
  1  2  1  0
  2  3  1  0
  3  4  1  0
  4  5  1  0
  5  6  1  0
  6  7  1  0
  6  8  1  0
  5  9  1  0
  4 10  1  0
  3 11  1  0
  1 12  1  0
  7  2  1  0
  1 13  1  0
  1 14  1  0
  2 15  1  1
  3 16  1  6
  4 17  1  1
  5 18  1  6
  6 19  1  1
  8 20  1  0
  9 21  1  0
 10 22  1  0
 11 23  1  0
 12 24  1  0
M  END
