
     RDKit          3D

 24 24  0  0  0  0  0  0  0  0999 V2000
   56.2750   48.9980   21.1450 O   0  0  0  0  0  0  0  0  0  0  0  0
   55.2700   48.4510   21.9980 C   0  0  0  0  0  0  0  0  0  0  0  0
   55.1710   49.2840   23.2780 C   0  0  1  0  0  0  0  0  0  0  0  0
   56.3260   50.1430   23.3050 O   0  0  0  0  0  0  0  0  0  0  0  0
   56.3980   50.9150   24.5000 C   0  0  1  0  0  0  0  0  0  0  0  0
   57.5960   51.6810   24.4820 O   0  0  0  0  0  0  0  0  0  0  0  0
   55.1840   51.8560   24.5850 C   0  0  2  0  0  0  0  0  0  0  0  0
   55.2400   52.6450   25.7790 O   0  0  0  0  0  0  0  0  0  0  0  0
   53.9020   51.0290   24.5530 C   0  0  1  0  0  0  0  0  0  0  0  0
   52.7720   51.9150   24.5340 O   0  0  0  0  0  0  0  0  0  0  0  0
   53.8770   50.1130   23.3220 C   0  0  2  0  0  0  0  0  0  0  0  0
   52.7050   49.2990   23.4120 O   0  0  0  0  0  0  0  0  0  0  0  0
   56.5630   48.2610   20.5700 H   0  0  0  0  0  0  0  0  0  0  0  0
   54.3012   48.4644   21.4771 H   0  0  0  0  0  0  0  0  0  0  0  0
   55.5358   47.4154   22.2568 H   0  0  0  0  0  0  0  0  0  0  0  0
   55.1428   48.6243   24.1578 H   0  0  0  0  0  0  0  0  0  0  0  0
   56.3950   50.2472   25.3741 H   0  0  0  0  0  0  0  0  0  0  0  0
   58.2440   51.1680   25.0020 H   0  0  0  0  0  0  0  0  0  0  0  0
   55.1975   52.5409   23.7243 H   0  0  0  0  0  0  0  0  0  0  0  0
   55.9740   52.2610   26.3020 H   0  0  0  0  0  0  0  0  0  0  0  0
   53.8602   50.3941   25.4503 H   0  0  0  0  0  0  0  0  0  0  0  0
   52.3240   51.7390   23.6820 H   0  0  0  0  0  0  0  0  0  0  0  0
   53.8341   50.6865   22.3843 H   0  0  0  0  0  0  0  0  0  0  0  0
   52.7960   48.7160   24.1880 H   0  0  0  0  0  0  0  0  0  0  0  0
  1  2  1  0
  2  3  1  0
  3  4  1  0
  4  5  1  0
  5  6  1  0
  5  7  1  0
  7  8  1  0
  7  9  1  0
  9 10  1  0
  9 11  1  0
 11 12  1  0
 11  3  1  0
  1 13  1  0
  2 14  1  0
  2 15  1  0
  3 16  1  1
  5 17  1  1
  6 18  1  0
  7 19  1  6
  8 20  1  0
  9 21  1  1
 10 22  1  0
 11 23  1  6
 12 24  1  0
M  END
>  <meeko>  (1) 
{"is_sidechain": false}

$$$$
