
     RDKit          3D

 54 53  0  0  0  0  0  0  0  0999 V2000
   52.6490   40.2080   21.2850 C   0  0  0  0  0  0  0  0  0  0  0  0
   54.1400   39.9800   21.0920 C   0  0  0  0  0  0  0  0  0  0  0  0
   55.0080   41.1330   21.6040 C   0  0  0  0  0  0  0  0  0  0  0  0
   55.6470   41.9520   20.4790 C   0  0  0  0  0  0  0  0  0  0  0  0
   55.0680   43.3660   20.3540 C   0  0  0  0  0  0  0  0  0  0  0  0
   54.5240   43.6830   18.9590 C   0  0  0  0  0  0  0  0  0  0  0  0
   54.4570   42.4180   18.0940 C   0  0  0  0  0  0  0  0  0  0  0  0
   54.6770   42.6910   16.6040 C   0  0  0  0  0  0  0  0  0  0  0  0
   53.4130   42.6400   15.7910 C   0  0  0  0  0  0  0  0  0  0  0  0
   52.6100   43.6720   15.4820 C   0  0  0  0  0  0  0  0  0  0  0  0
   52.8060   45.1140   15.8560 C   0  0  0  0  0  0  0  0  0  0  0  0
   51.5980   45.6420   16.6320 C   0  0  0  0  0  0  0  0  0  0  0  0
   51.8670   46.9610   17.3640 C   0  0  0  0  0  0  0  0  0  0  0  0
   51.5390   46.9020   18.8590 C   0  0  0  0  0  0  0  0  0  0  0  0
   52.7850   46.7500   19.7370 C   0  0  0  0  0  0  0  0  0  0  0  0
   53.9930   47.5960   19.3110 C   0  0  0  0  0  0  0  0  0  0  0  0
   55.3520   47.0720   19.7760 C   0  0  0  0  0  0  0  0  0  0  0  0
   56.1340   48.0710   20.5870 C   0  0  0  0  0  0  0  0  0  0  0  0
   56.2920   49.2570   20.3520 O   0  0  0  0  0  0  0  0  0  0  0  0
   56.7270   47.5020   21.6550 O   0  0  0  0  0  0  0  0  0  0  0  0
   52.4196   40.2431   22.3602 H   0  0  0  0  0  0  0  0  0  0  0  0
   52.3602   41.1608   20.8172 H   0  0  0  0  0  0  0  0  0  0  0  0
   52.0887   39.3851   20.8172 H   0  0  0  0  0  0  0  0  0  0  0  0
   54.4245   39.0645   21.6314 H   0  0  0  0  0  0  0  0  0  0  0  0
   54.3165   39.8997   20.0092 H   0  0  0  0  0  0  0  0  0  0  0  0
   54.3790   41.8020   22.2097 H   0  0  0  0  0  0  0  0  0  0  0  0
   55.8259   40.6907   22.1918 H   0  0  0  0  0  0  0  0  0  0  0  0
   56.7263   42.0328   20.6757 H   0  0  0  0  0  0  0  0  0  0  0  0
   55.4357   41.4288   19.5347 H   0  0  0  0  0  0  0  0  0  0  0  0
   54.2480   43.4716   21.0796 H   0  0  0  0  0  0  0  0  0  0  0  0
   55.8905   44.0702   20.5477 H   0  0  0  0  0  0  0  0  0  0  0  0
   53.5136   44.1071   19.0548 H   0  0  0  0  0  0  0  0  0  0  0  0
   55.2000   44.4030   18.4747 H   0  0  0  0  0  0  0  0  0  0  0  0
   55.2321   41.7178   18.4388 H   0  0  0  0  0  0  0  0  0  0  0  0
   53.4445   42.0020   18.2030 H   0  0  0  0  0  0  0  0  0  0  0  0
   55.1206   43.6917   16.4953 H   0  0  0  0  0  0  0  0  0  0  0  0
   55.3378   41.8978   16.2242 H   0  0  0  0  0  0  0  0  0  0  0  0
   53.1140   41.6529   15.4086 H   0  0  0  0  0  0  0  0  0  0  0  0
   51.7124   43.4358   14.8916 H   0  0  0  0  0  0  0  0  0  0  0  0
   53.7054   45.2051   16.4828 H   0  0  0  0  0  0  0  0  0  0  0  0
   52.9199   45.7051   14.9353 H   0  0  0  0  0  0  0  0  0  0  0  0
   50.7716   45.8000   15.9234 H   0  0  0  0  0  0  0  0  0  0  0  0
   51.3545   44.8918   17.3987 H   0  0  0  0  0  0  0  0  0  0  0  0
   52.9317   47.2128   17.2498 H   0  0  0  0  0  0  0  0  0  0  0  0
   51.2108   47.7218   16.9162 H   0  0  0  0  0  0  0  0  0  0  0  0
   51.0215   47.8306   19.1417 H   0  0  0  0  0  0  0  0  0  0  0  0
   50.9087   46.0157   19.0240 H   0  0  0  0  0  0  0  0  0  0  0  0
   52.5144   47.0364   20.7640 H   0  0  0  0  0  0  0  0  0  0  0  0
   53.0991   45.7002   19.6414 H   0  0  0  0  0  0  0  0  0  0  0  0
   54.0046   47.6434   18.2121 H   0  0  0  0  0  0  0  0  0  0  0  0
   53.8634   48.5767   19.7921 H   0  0  0  0  0  0  0  0  0  0  0  0
   55.1876   46.1755   20.3919 H   0  0  0  0  0  0  0  0  0  0  0  0
   55.9418   46.8547   18.8732 H   0  0  0  0  0  0  0  0  0  0  0  0
   56.4490   48.0660   22.4070 H   0  0  0  0  0  0  0  0  0  0  0  0
  1  2  1  0
  2  3  1  0
  3  4  1  0
  4  5  1  0
  5  6  1  0
  6  7  1  0
  7  8  1  0
  8  9  1  0
  9 10  2  3
 10 11  1  0
 11 12  1  0
 12 13  1  0
 13 14  1  0
 14 15  1  0
 15 16  1  0
 16 17  1  0
 17 18  1  0
 18 19  2  0
 18 20  1  0
  1 21  1  0
  1 22  1  0
  1 23  1  0
  2 24  1  0
  2 25  1  0
  3 26  1  0
  3 27  1  0
  4 28  1  0
  4 29  1  0
  5 30  1  0
  5 31  1  0
  6 32  1  0
  6 33  1  0
  7 34  1  0
  7 35  1  0
  8 36  1  0
  8 37  1  0
  9 38  1  0
 10 39  1  0
 11 40  1  0
 11 41  1  0
 12 42  1  0
 12 43  1  0
 13 44  1  0
 13 45  1  0
 14 46  1  0
 14 47  1  0
 15 48  1  0
 15 49  1  0
 16 50  1  0
 16 51  1  0
 17 52  1  0
 17 53  1  0
 20 54  1  0
M  END
>  <meeko>  (1) 
{"is_sidechain": false}

$$$$
