EPA_carboxylate
     RDKit          3D

 49 48  0  0  0  0  0  0  0  0999 V2000
   52.1500   48.5960   19.5350 C   0  0  0  0  0  0  0  0  0  0  0  0
   51.9820   47.4580   18.5420 C   0  0  0  0  0  0  0  0  0  0  0  0
   52.9890   47.4960   17.3890 C   0  0  0  0  0  0  0  0  0  0  0  0
   53.0830   46.1730   16.6230 C   0  0  0  0  0  0  0  0  0  0  0  0
   51.7210   45.5130   16.3710 C   0  0  0  0  0  0  0  0  0  0  0  0
   51.7290   44.2860   15.4550 C   0  0  0  0  0  0  0  0  0  0  0  0
   52.2070   43.0090   16.1490 C   0  0  0  0  0  0  0  0  0  0  0  0
   53.5610   42.5540   15.6000 C   0  0  0  0  0  0  0  0  0  0  0  0
   54.6600   42.7040   16.6540 C   0  0  0  0  0  0  0  0  0  0  0  0
   54.1500   42.5850   18.0940 C   0  0  0  0  0  0  0  0  0  0  0  0
   55.1430   42.0100   19.1110 C   0  0  0  0  0  0  0  0  0  0  0  0
   55.2980   42.8680   20.3690 C   0  0  0  0  0  0  0  0  0  0  0  0
   54.5460   44.1930   20.2350 C   0  0  0  0  0  0  0  0  0  0  0  0
   55.2150   45.3610   20.9710 C   0  0  0  0  0  0  0  0  0  0  0  0
   55.2700   46.6640   20.1750 C   0  0  0  0  0  0  0  0  0  0  0  0
   56.0130   47.7830   20.8610 C   0  0  0  0  0  0  0  0  0  0  0  0
   56.7470   47.6230   21.8280 O   0  0  0  0  0  0  0  0  0  0  0  0
   55.7570   48.9980   20.3170 O   0  0  0  0  0  0  0  0  0  0  0  0
   52.0916   48.2002   20.5596 H   0  0  0  0  0  0  0  0  0  0  0  0
   53.1285   49.0746   19.3821 H   0  0  0  0  0  0  0  0  0  0  0  0
   51.3515   49.3370   19.3821 H   0  0  0  0  0  0  0  0  0  0  0  0
   52.1050   46.5063   19.0798 H   0  0  0  0  0  0  0  0  0  0  0  0
   50.9806   47.5621   18.0989 H   0  0  0  0  0  0  0  0  0  0  0  0
   52.6852   48.2857   16.6860 H   0  0  0  0  0  0  0  0  0  0  0  0
   53.9791   47.6898   17.8274 H   0  0  0  0  0  0  0  0  0  0  0  0
   53.5611   46.3665   15.6514 H   0  0  0  0  0  0  0  0  0  0  0  0
   53.6680   45.4799   17.2454 H   0  0  0  0  0  0  0  0  0  0  0  0
   51.3116   45.2039   17.3441 H   0  0  0  0  0  0  0  0  0  0  0  0
   51.1171   46.2694   15.8484 H   0  0  0  0  0  0  0  0  0  0  0  0
   50.7059   44.1199   15.0866 H   0  0  0  0  0  0  0  0  0  0  0  0
   52.4372   44.4956   14.6398 H   0  0  0  0  0  0  0  0  0  0  0  0
   52.3037   43.2016   17.2277 H   0  0  0  0  0  0  0  0  0  0  0  0
   51.4703   42.2140   15.9612 H   0  0  0  0  0  0  0  0  0  0  0  0
   53.4912   41.4976   15.3013 H   0  0  0  0  0  0  0  0  0  0  0  0
   53.8173   43.1836   14.7352 H   0  0  0  0  0  0  0  0  0  0  0  0
   55.4125   41.9195   16.4857 H   0  0  0  0  0  0  0  0  0  0  0  0
   55.0776   43.7155   16.5425 H   0  0  0  0  0  0  0  0  0  0  0  0
   53.8637   43.5911   18.4343 H   0  0  0  0  0  0  0  0  0  0  0  0
   53.3153   41.8696   18.0559 H   0  0  0  0  0  0  0  0  0  0  0  0
   54.7933   41.0115   19.4121 H   0  0  0  0  0  0  0  0  0  0  0  0
   56.1264   41.9784   18.6191 H   0  0  0  0  0  0  0  0  0  0  0  0
   54.8979   42.3147   21.2314 H   0  0  0  0  0  0  0  0  0  0  0  0
   56.3666   43.0883   20.5091 H   0  0  0  0  0  0  0  0  0  0  0  0
   54.4801   44.4480   19.1670 H   0  0  0  0  0  0  0  0  0  0  0  0
   53.5572   44.0485   20.6948 H   0  0  0  0  0  0  0  0  0  0  0  0
   54.6544   45.5486   21.8987 H   0  0  0  0  0  0  0  0  0  0  0  0
   56.2577   45.0607   21.1514 H   0  0  0  0  0  0  0  0  0  0  0  0
   55.7661   46.4597   19.2147 H   0  0  0  0  0  0  0  0  0  0  0  0
   54.2304   47.0037   20.0572 H   0  0  0  0  0  0  0  0  0  0  0  0
  1  2  1  0
  2  3  1  0
  3  4  1  0
  4  5  1  0
  5  6  1  0
  6  7  1  0
  7  8  1  0
  8  9  1  0
  9 10  1  0
 10 11  1  0
 11 12  1  0
 12 13  1  0
 13 14  1  0
 14 15  1  0
 15 16  1  0
 16 17  2  0
 16 18  1  0
  1 19  1  0
  1 20  1  0
  1 21  1  0
  2 22  1  0
  2 23  1  0
  3 24  1  0
  3 25  1  0
  4 26  1  0
  4 27  1  0
  5 28  1  0
  5 29  1  0
  6 30  1  0
  6 31  1  0
  7 32  1  0
  7 33  1  0
  8 34  1  0
  8 35  1  0
  9 36  1  0
  9 37  1  0
 10 38  1  0
 10 39  1  0
 11 40  1  0
 11 41  1  0
 12 42  1  0
 12 43  1  0
 13 44  1  0
 13 45  1  0
 14 46  1  0
 14 47  1  0
 15 48  1  0
 15 49  1  0
M  CHG  1  18  -1
M  END
$$$$
