
     RDKit          3D

 48 47  0  0  0  0  0  0  0  0999 V2000
   53.7950   41.0800   21.4040 C   0  0  0  0  0  0  0  0  0  0  0  0
   54.5350   40.4660   20.2250 C   0  0  0  0  0  0  0  0  0  0  0  0
   55.3580   41.4760   19.4190 C   0  0  0  0  0  0  0  0  0  0  0  0
   55.0340   42.9460   19.7090 C   0  0  0  0  0  0  0  0  0  0  0  0
   54.5610   43.7890   18.5240 C   0  0  0  0  0  0  0  0  0  0  0  0
   54.7840   43.1100   17.1690 C   0  0  0  0  0  0  0  0  0  0  0  0
   53.4780   42.6580   16.5770 C   0  0  0  0  0  0  0  0  0  0  0  0
   52.5530   43.4190   15.9690 C   0  0  0  0  0  0  0  0  0  0  0  0
   52.5940   44.9070   15.7610 C   0  0  0  0  0  0  0  0  0  0  0  0
   51.4750   45.6540   16.4930 C   0  0  0  0  0  0  0  0  0  0  0  0
   51.9530   46.3710   17.7610 C   0  0  0  0  0  0  0  0  0  0  0  0
   53.1990   47.2380   17.5390 C   0  0  0  0  0  0  0  0  0  0  0  0
   53.2440   48.4780   18.4340 C   0  0  0  0  0  0  0  0  0  0  0  0
   53.8610   48.2130   19.8150 C   0  0  0  0  0  0  0  0  0  0  0  0
   55.1770   47.4370   19.8010 C   0  0  0  0  0  0  0  0  0  0  0  0
   56.2000   47.9970   20.7530 C   0  0  0  0  0  0  0  0  0  0  0  0
   56.6340   47.4770   21.7660 O   0  0  0  0  0  0  0  0  0  0  0  0
   56.6640   49.1950   20.3460 O   0  0  0  0  0  0  0  0  0  0  0  0
   54.2352   40.7148   22.3436 H   0  0  0  0  0  0  0  0  0  0  0  0
   53.8809   42.1758   21.3604 H   0  0  0  0  0  0  0  0  0  0  0  0
   52.7339   40.7934   21.3604 H   0  0  0  0  0  0  0  0  0  0  0  0
   55.2152   39.6909   20.6078 H   0  0  0  0  0  0  0  0  0  0  0  0
   53.7727   40.0579   19.5450 H   0  0  0  0  0  0  0  0  0  0  0  0
   56.4215   41.3089   19.6450 H   0  0  0  0  0  0  0  0  0  0  0  0
   55.1073   41.3063   18.3615 H   0  0  0  0  0  0  0  0  0  0  0  0
   54.2422   42.9690   20.4722 H   0  0  0  0  0  0  0  0  0  0  0  0
   55.9868   43.3966   20.0238 H   0  0  0  0  0  0  0  0  0  0  0  0
   53.4853   43.9857   18.6429 H   0  0  0  0  0  0  0  0  0  0  0  0
   55.1548   44.7150   18.5257 H   0  0  0  0  0  0  0  0  0  0  0  0
   55.2634   43.8235   16.4826 H   0  0  0  0  0  0  0  0  0  0  0  0
   55.4273   42.2301   17.3172 H   0  0  0  0  0  0  0  0  0  0  0  0
   53.2549   41.5833   16.6499 H   0  0  0  0  0  0  0  0  0  0  0  0
   51.6673   42.8951   15.5802 H   0  0  0  0  0  0  0  0  0  0  0  0
   53.5612   45.2836   16.1254 H   0  0  0  0  0  0  0  0  0  0  0  0
   52.4561   45.0886   14.6849 H   0  0  0  0  0  0  0  0  0  0  0  0
   51.0488   46.4022   15.8085 H   0  0  0  0  0  0  0  0  0  0  0  0
   50.7317   44.9047   16.8030 H   0  0  0  0  0  0  0  0  0  0  0  0
   51.1396   47.0164   18.1240 H   0  0  0  0  0  0  0  0  0  0  0  0
   52.2247   45.5936   18.4902 H   0  0  0  0  0  0  0  0  0  0  0  0
   54.0902   46.6269   17.7449 H   0  0  0  0  0  0  0  0  0  0  0  0
   53.1679   47.5904   16.4974 H   0  0  0  0  0  0  0  0  0  0  0  0
   53.8409   49.2512   17.9283 H   0  0  0  0  0  0  0  0  0  0  0  0
   52.2041   48.7963   18.5993 H   0  0  0  0  0  0  0  0  0  0  0  0
   54.0436   49.1841   20.2982 H   0  0  0  0  0  0  0  0  0  0  0  0
   53.1401   47.5821   20.3556 H   0  0  0  0  0  0  0  0  0  0  0  0
   54.9716   46.3933   20.0813 H   0  0  0  0  0  0  0  0  0  0  0  0
   55.5943   47.5150   18.7862 H   0  0  0  0  0  0  0  0  0  0  0  0
   56.2670   49.8290   20.9790 H   0  0  0  0  0  0  0  0  0  0  0  0
  1  2  1  0
  2  3  1  0
  3  4  1  0
  4  5  1  0
  5  6  1  0
  6  7  1  0
  7  8  2  0
  8  9  1  0
  9 10  1  0
 10 11  1  0
 11 12  1  0
 12 13  1  0
 13 14  1  0
 14 15  1  0
 15 16  1  0
 16 17  2  0
 16 18  1  0
  1 19  1  0
  1 20  1  0
  1 21  1  0
  2 22  1  0
  2 23  1  0
  3 24  1  0
  3 25  1  0
  4 26  1  0
  4 27  1  0
  5 28  1  0
  5 29  1  0
  6 30  1  0
  6 31  1  0
  7 32  1  0
  8 33  1  0
  9 34  1  0
  9 35  1  0
 10 36  1  0
 10 37  1  0
 11 38  1  0
 11 39  1  0
 12 40  1  0
 12 41  1  0
 13 42  1  0
 13 43  1  0
 14 44  1  0
 14 45  1  0
 15 46  1  0
 15 47  1  0
 18 48  1  0
M  END
>  <meeko>  (1) 
{"is_sidechain": false}

$$$$
