
     RDKit          3D

 46 45  0  0  0  0  0  0  0  0999 V2000
   53.9020   40.2900   20.7600 C   0  0  0  0  0  0  0  0  0  0  0  0
   54.9510   41.3850   20.6470 C   0  0  0  0  0  0  0  0  0  0  0  0
   55.1600   41.8080   19.1920 C   0  0  0  0  0  0  0  0  0  0  0  0
   54.6360   43.2150   18.8870 C   0  0  0  0  0  0  0  0  0  0  0  0
   54.6690   43.6300   17.4120 C   0  0  0  0  0  0  0  0  0  0  0  0
   54.0300   42.6440   16.4290 C   0  0  0  0  0  0  0  0  0  0  0  0
   52.5990   43.0160   16.0380 C   0  0  0  0  0  0  0  0  0  0  0  0
   52.5310   44.4380   15.4760 C   0  0  0  0  0  0  0  0  0  0  0  0
   51.5060   45.2840   16.2340 C   0  0  0  0  0  0  0  0  0  0  0  0
   52.1370   46.3740   17.1070 C   0  0  0  0  0  0  0  0  0  0  0  0
   51.6490   46.3500   18.5570 C   0  0  0  0  0  0  0  0  0  0  0  0
   52.7360   46.7260   19.5700 C   0  0  0  0  0  0  0  0  0  0  0  0
   54.0470   47.1760   18.9160 C   0  0  0  0  0  0  0  0  0  0  0  0
   55.2750   46.7160   19.6990 C   0  0  0  0  0  0  0  0  0  0  0  0
   56.0190   47.8360   20.3890 C   0  0  0  0  0  0  0  0  0  0  0  0
   56.8000   47.6890   21.3220 O   0  0  0  0  0  0  0  0  0  0  0  0
   53.7024   40.0816   21.8215 H   0  0  0  0  0  0  0  0  0  0  0  0
   52.9738   40.6194   20.2701 H   0  0  0  0  0  0  0  0  0  0  0  0
   54.2710   39.3768   20.2701 H   0  0  0  0  0  0  0  0  0  0  0  0
   54.6218   42.2578   21.2299 H   0  0  0  0  0  0  0  0  0  0  0  0
   55.9033   40.9941   21.0346 H   0  0  0  0  0  0  0  0  0  0  0  0
   56.2376   41.7819   18.9725 H   0  0  0  0  0  0  0  0  0  0  0  0
   54.5911   41.1061   18.5645 H   0  0  0  0  0  0  0  0  0  0  0  0
   53.5923   43.2690   19.2302 H   0  0  0  0  0  0  0  0  0  0  0  0
   55.3129   43.9073   19.4090 H   0  0  0  0  0  0  0  0  0  0  0  0
   54.1400   44.5900   17.3193 H   0  0  0  0  0  0  0  0  0  0  0  0
   55.7333   43.6782   17.1383 H   0  0  0  0  0  0  0  0  0  0  0  0
   54.6439   42.6141   15.5168 H   0  0  0  0  0  0  0  0  0  0  0  0
   53.9850   41.6671   16.9327 H   0  0  0  0  0  0  0  0  0  0  0  0
   52.2409   42.3106   15.2737 H   0  0  0  0  0  0  0  0  0  0  0  0
   51.9679   42.9663   16.9376 H   0  0  0  0  0  0  0  0  0  0  0  0
   53.5216   44.9076   15.5671 H   0  0  0  0  0  0  0  0  0  0  0  0
   52.2242   44.3814   14.4212 H   0  0  0  0  0  0  0  0  0  0  0  0
   50.8424   45.7660   15.5010 H   0  0  0  0  0  0  0  0  0  0  0  0
   50.9618   44.6055   16.9074 H   0  0  0  0  0  0  0  0  0  0  0  0
   53.2282   46.2348   17.1041 H   0  0  0  0  0  0  0  0  0  0  0  0
   51.8402   47.3436   16.6807 H   0  0  0  0  0  0  0  0  0  0  0  0
   50.8172   47.0628   18.6571 H   0  0  0  0  0  0  0  0  0  0  0  0
   51.3402   45.3179   18.7793 H   0  0  0  0  0  0  0  0  0  0  0  0
   52.3592   47.5473   20.1972 H   0  0  0  0  0  0  0  0  0  0  0  0
   52.9590   45.8232   20.1576 H   0  0  0  0  0  0  0  0  0  0  0  0
   54.0977   46.7562   17.9005 H   0  0  0  0  0  0  0  0  0  0  0  0
   54.0530   48.2758   18.8977 H   0  0  0  0  0  0  0  0  0  0  0  0
   54.9480   45.9956   20.4633 H   0  0  0  0  0  0  0  0  0  0  0  0
   55.9701   46.2739   18.9700 H   0  0  0  0  0  0  0  0  0  0  0  0
   55.8466   48.8602   20.0266 H   0  0  0  0  0  0  0  0  0  0  0  0
  1  2  1  0
  2  3  1  0
  3  4  1  0
  4  5  1  0
  5  6  1  0
  6  7  1  0
  7  8  1  0
  8  9  1  0
  9 10  1  0
 10 11  1  0
 11 12  1  0
 12 13  1  0
 13 14  1  0
 14 15  1  0
 15 16  2  0
  1 17  1  0
  1 18  1  0
  1 19  1  0
  2 20  1  0
  2 21  1  0
  3 22  1  0
  3 23  1  0
  4 24  1  0
  4 25  1  0
  5 26  1  0
  5 27  1  0
  6 28  1  0
  6 29  1  0
  7 30  1  0
  7 31  1  0
  8 32  1  0
  8 33  1  0
  9 34  1  0
  9 35  1  0
 10 36  1  0
 10 37  1  0
 11 38  1  0
 11 39  1  0
 12 40  1  0
 12 41  1  0
 13 42  1  0
 13 43  1  0
 14 44  1  0
 14 45  1  0
 15 46  1  0
M  END
>  <meeko>  (1) 
{"is_sidechain": false}

$$$$
