
     RDKit          3D

 41 40  0  0  0  0  0  0  0  0999 V2000
   52.9580   48.1940   17.3500 C   0  0  0  0  0  0  0  0  0  0  0  0
   52.9660   46.7920   16.7610 C   0  0  0  0  0  0  0  0  0  0  0  0
   51.6990   45.9910   17.0690 C   0  0  0  0  0  0  0  0  0  0  0  0
   51.4540   44.7670   16.1820 C   0  0  0  0  0  0  0  0  0  0  0  0
   52.7200   44.2480   15.4960 C   0  0  0  0  0  0  0  0  0  0  0  0
   53.2760   43.0180   16.2180 C   0  0  0  0  0  0  0  0  0  0  0  0
   54.6120   43.3280   16.8970 C   0  0  0  0  0  0  0  0  0  0  0  0
   54.7540   42.5620   18.2140 C   0  0  0  0  0  0  0  0  0  0  0  0
   54.7360   43.4670   19.4500 C   0  0  0  0  0  0  0  0  0  0  0  0
   54.8500   44.9560   19.1160 C   0  0  0  0  0  0  0  0  0  0  0  0
   54.8480   45.8090   20.3910 C   0  0  0  0  0  0  0  0  0  0  0  0
   55.0230   47.2990   20.0970 C   0  0  0  0  0  0  0  0  0  0  0  0
   56.1310   47.9350   20.9000 C   0  0  0  0  0  0  0  0  0  0  0  0
   56.6990   47.4440   21.8630 O   0  0  0  0  0  0  0  0  0  0  0  0
   56.4470   49.1490   20.3780 O   0  0  0  0  0  0  0  0  0  0  0  0
   52.9584   48.1304   18.4482 H   0  0  0  0  0  0  0  0  0  0  0  0
   53.8531   48.7380   17.0139 H   0  0  0  0  0  0  0  0  0  0  0  0
   52.0568   48.7278   17.0139 H   0  0  0  0  0  0  0  0  0  0  0  0
   53.0686   46.8742   15.6689 H   0  0  0  0  0  0  0  0  0  0  0  0
   53.8078   46.2536   17.2209 H   0  0  0  0  0  0  0  0  0  0  0  0
   51.7629   45.6454   18.1114 H   0  0  0  0  0  0  0  0  0  0  0  0
   50.8586   46.6739   16.8756 H   0  0  0  0  0  0  0  0  0  0  0  0
   51.0410   43.9612   16.8066 H   0  0  0  0  0  0  0  0  0  0  0  0
   50.7588   45.0765   15.3877 H   0  0  0  0  0  0  0  0  0  0  0  0
   52.4798   43.9764   14.4575 H   0  0  0  0  0  0  0  0  0  0  0  0
   53.4812   45.0416   15.5231 H   0  0  0  0  0  0  0  0  0  0  0  0
   52.5532   42.6933   16.9810 H   0  0  0  0  0  0  0  0  0  0  0  0
   53.4405   42.2241   15.4746 H   0  0  0  0  0  0  0  0  0  0  0  0
   55.4324   43.0390   16.2236 H   0  0  0  0  0  0  0  0  0  0  0  0
   54.6504   44.4055   17.1148 H   0  0  0  0  0  0  0  0  0  0  0  0
   53.9215   41.8474   18.2931 H   0  0  0  0  0  0  0  0  0  0  0  0
   55.7327   42.0602   18.1936 H   0  0  0  0  0  0  0  0  0  0  0  0
   53.7914   43.3021   19.9889 H   0  0  0  0  0  0  0  0  0  0  0  0
   55.6138   43.2029   20.0580 H   0  0  0  0  0  0  0  0  0  0  0  0
   55.7878   45.1307   18.5682 H   0  0  0  0  0  0  0  0  0  0  0  0
   53.9843   45.2438   18.5014 H   0  0  0  0  0  0  0  0  0  0  0  0
   53.8907   45.6621   20.9125 H   0  0  0  0  0  0  0  0  0  0  0  0
   55.6985   45.4877   21.0102 H   0  0  0  0  0  0  0  0  0  0  0  0
   55.2515   47.4203   19.0279 H   0  0  0  0  0  0  0  0  0  0  0  0
   54.0852   47.8009   20.3775 H   0  0  0  0  0  0  0  0  0  0  0  0
   57.0150   49.0680   19.5830 H   0  0  0  0  0  0  0  0  0  0  0  0
  1  2  1  0
  2  3  1  0
  3  4  1  0
  4  5  1  0
  5  6  1  0
  6  7  1  0
  7  8  1  0
  8  9  1  0
  9 10  1  0
 10 11  1  0
 11 12  1  0
 12 13  1  0
 13 14  2  0
 13 15  1  0
  1 16  1  0
  1 17  1  0
  1 18  1  0
  2 19  1  0
  2 20  1  0
  3 21  1  0
  3 22  1  0
  4 23  1  0
  4 24  1  0
  5 25  1  0
  5 26  1  0
  6 27  1  0
  6 28  1  0
  7 29  1  0
  7 30  1  0
  8 31  1  0
  8 32  1  0
  9 33  1  0
  9 34  1  0
 10 35  1  0
 10 36  1  0
 11 37  1  0
 11 38  1  0
 12 39  1  0
 12 40  1  0
 15 41  1  0
M  END
>  <meeko>  (1) 
{"is_sidechain": false}

$$$$
