5351472
  -OEChem-06222602013D

 52 51  0     0  0  0  0  0  0999 V2000
    4.8831    1.9214    0.8208 O   0  0  0  0  0  0  0  0  0  0  0  0
    3.9092    1.7639   -1.2294 O   0  0  0  0  0  0  0  0  0  0  0  0
   -1.2543    2.3700   -0.1866 C   0  0  0  0  0  0  0  0  0  0  0  0
   -2.5633    2.6679    0.5522 C   0  0  0  0  0  0  0  0  0  0  0  0
    0.0108    2.3674    0.6773 C   0  0  0  0  0  0  0  0  0  0  0  0
   -3.8195    2.7371   -0.3218 C   0  0  0  0  0  0  0  0  0  0  0  0
    1.2948    2.1417   -0.1281 C   0  0  0  0  0  0  0  0  0  0  0  0
    0.9018   -2.8551   -0.4884 C   0  0  0  0  0  0  0  0  0  0  0  0
   -4.0801    1.4526   -1.1119 C   0  0  0  0  0  0  0  0  0  0  0  0
   -0.3136   -2.6343    0.4188 C   0  0  0  0  0  0  0  0  0  0  0  0
    2.2236   -2.4248    0.1554 C   0  0  0  0  0  0  0  0  0  0  0  0
    2.5433    2.1459    0.7553 C   0  0  0  0  0  0  0  0  0  0  0  0
   -1.6226   -3.1282   -0.2073 C   0  0  0  0  0  0  0  0  0  0  0  0
    3.4457   -2.7175   -0.7158 C   0  0  0  0  0  0  0  0  0  0  0  0
   -4.2545    0.2780   -0.1917 C   0  0  0  0  0  0  0  0  0  0  0  0
   -2.8027   -2.9781    0.7099 C   0  0  0  0  0  0  0  0  0  0  0  0
    4.7365   -2.3401   -0.0049 C   0  0  0  0  0  0  0  0  0  0  0  0
   -3.4413   -0.7887   -0.1871 C   0  0  0  0  0  0  0  0  0  0  0  0
   -3.6162   -1.9115    0.7057 C   0  0  0  0  0  0  0  0  0  0  0  0
    3.8191    1.9325   -0.0227 C   0  0  0  0  0  0  0  0  0  0  0  0
   -1.3209    1.3952   -0.6810 H   0  0  0  0  0  0  0  0  0  0  0  0
   -1.1321    3.1135   -0.9845 H   0  0  0  0  0  0  0  0  0  0  0  0
   -2.7008    1.9284    1.3501 H   0  0  0  0  0  0  0  0  0  0  0  0
   -2.4584    3.6349    1.0609 H   0  0  0  0  0  0  0  0  0  0  0  0
    0.0832    3.3250    1.2074 H   0  0  0  0  0  0  0  0  0  0  0  0
   -0.0812    1.5868    1.4425 H   0  0  0  0  0  0  0  0  0  0  0  0
   -3.7217    3.5708   -1.0277 H   0  0  0  0  0  0  0  0  0  0  0  0
   -4.6834    2.9650    0.3152 H   0  0  0  0  0  0  0  0  0  0  0  0
    1.2277    1.1850   -0.6613 H   0  0  0  0  0  0  0  0  0  0  0  0
    1.3870    2.9205   -0.8953 H   0  0  0  0  0  0  0  0  0  0  0  0
    0.7598   -2.3033   -1.4257 H   0  0  0  0  0  0  0  0  0  0  0  0
    0.9622   -3.9183   -0.7516 H   0  0  0  0  0  0  0  0  0  0  0  0
   -5.0026    1.5745   -1.6923 H   0  0  0  0  0  0  0  0  0  0  0  0
   -3.2815    1.2797   -1.8418 H   0  0  0  0  0  0  0  0  0  0  0  0
   -0.3955   -1.5649    0.6514 H   0  0  0  0  0  0  0  0  0  0  0  0
   -0.1487   -3.1527    1.3721 H   0  0  0  0  0  0  0  0  0  0  0  0
    2.3356   -2.9428    1.1162 H   0  0  0  0  0  0  0  0  0  0  0  0
    2.1830   -1.3513    0.3781 H   0  0  0  0  0  0  0  0  0  0  0  0
    2.4636    1.3465    1.5008 H   0  0  0  0  0  0  0  0  0  0  0  0
    2.6210    3.1077    1.2745 H   0  0  0  0  0  0  0  0  0  0  0  0
   -1.7814   -2.6633   -1.1854 H   0  0  0  0  0  0  0  0  0  0  0  0
   -1.5230   -4.1996   -0.4281 H   0  0  0  0  0  0  0  0  0  0  0  0
    3.3714   -2.1601   -1.6565 H   0  0  0  0  0  0  0  0  0  0  0  0
    3.4744   -3.7832   -0.9702 H   0  0  0  0  0  0  0  0  0  0  0  0
   -5.1008    0.3176    0.4909 H   0  0  0  0  0  0  0  0  0  0  0  0
   -2.9877   -3.7772    1.4229 H   0  0  0  0  0  0  0  0  0  0  0  0
    4.7509   -1.2736    0.2412 H   0  0  0  0  0  0  0  0  0  0  0  0
    5.5978   -2.5526   -0.6458 H   0  0  0  0  0  0  0  0  0  0  0  0
    4.8547   -2.9090    0.9229 H   0  0  0  0  0  0  0  0  0  0  0  0
   -2.6073   -0.7846   -0.8797 H   0  0  0  0  0  0  0  0  0  0  0  0
   -4.4448   -1.8811    1.4079 H   0  0  0  0  0  0  0  0  0  0  0  0
    5.7264    1.7685    0.3435 H   0  0  0  0  0  0  0  0  0  0  0  0
  1 20  1  0  0  0  0
  1 52  1  0  0  0  0
  2 20  2  0  0  0  0
  3  4  1  0  0  0  0
  3  5  1  0  0  0  0
  3 21  1  0  0  0  0
  3 22  1  0  0  0  0
  4  6  1  0  0  0  0
  4 23  1  0  0  0  0
  4 24  1  0  0  0  0
  5  7  1  0  0  0  0
  5 25  1  0  0  0  0
  5 26  1  0  0  0  0
  6  9  1  0  0  0  0
  6 27  1  0  0  0  0
  6 28  1  0  0  0  0
  7 12  1  0  0  0  0
  7 29  1  0  0  0  0
  7 30  1  0  0  0  0
  8 10  1  0  0  0  0
  8 11  1  0  0  0  0
  8 31  1  0  0  0  0
  8 32  1  0  0  0  0
  9 15  1  0  0  0  0
  9 33  1  0  0  0  0
  9 34  1  0  0  0  0
 10 13  1  0  0  0  0
 10 35  1  0  0  0  0
 10 36  1  0  0  0  0
 11 14  1  0  0  0  0
 11 37  1  0  0  0  0
 11 38  1  0  0  0  0
 12 20  1  0  0  0  0
 12 39  1  0  0  0  0
 12 40  1  0  0  0  0
 13 16  1  0  0  0  0
 13 41  1  0  0  0  0
 13 42  1  0  0  0  0
 14 17  1  0  0  0  0
 14 43  1  0  0  0  0
 14 44  1  0  0  0  0
 15 18  2  0  0  0  0
 15 45  1  0  0  0  0
 16 19  2  0  0  0  0
 16 46  1  0  0  0  0
 17 47  1  0  0  0  0
 17 48  1  0  0  0  0
 17 49  1  0  0  0  0
 18 19  1  0  0  0  0
 18 50  1  0  0  0  0
 19 51  1  0  0  0  0
M  END
> <PUBCHEM_COMPOUND_CID>
5351472

> <PUBCHEM_CONFORMER_RMSD>
1.2

> <PUBCHEM_CONFORMER_DIVERSEORDER>
1
45
92
37
178
9
176
183
133
160
124
39
11
53
157
173
31
27
8
184
108
82
198
208
205
154
89
203
58
52
140
158
15
22
78
46
156
172
7
135
56
18
41
3
63
30
139
166
55
196
150
34
202
197
33
180
152
143
99
14
93
49
149
128
32
13
48
94
171
106
129
16
131
165
36
113
126
100
67
191
17
2
123
101
21
141
97
201
189
61
43
127
134
24
64
105
29
120
162
144
190
6
85
80
168
187
74
192
42
132
111
114
142
44
159
199
35
200
4
116
19
57
110
138
109
75
145
70
50
125
206
163
20
81
51
147
60
12
151
137
146
164
68
182
153
112
38
62
87
66
98
121
195
83
179
5
95
185
79
107
188
47
10
174
177
119
148
26
115
77
71
73
130
181
40
86
88
104
84
76
155
90
23
122
65
194
167
69
117
59
102
28
207
25
136
204
169
175
161
54
91
118
72
96
170
103
186
193

> <PUBCHEM_MMFF94_PARTIAL_CHARGES>
15
1 -0.65
12 0.06
13 0.14
15 -0.29
16 -0.29
18 -0.15
19 -0.15
2 -0.57
20 0.66
45 0.15
46 0.15
50 0.15
51 0.15
52 0.5
9 0.14

> <PUBCHEM_EFFECTIVE_ROTOR_COUNT>
14

> <PUBCHEM_PHARMACOPHORE_FEATURES>
6
1 1 acceptor
1 17 hydrophobe
1 2 acceptor
3 1 2 20 anion
3 10 13 16 hydrophobe
3 8 11 14 hydrophobe

> <PUBCHEM_HEAVY_ATOM_COUNT>
20

> <PUBCHEM_ATOM_DEF_STEREO_COUNT>
0

> <PUBCHEM_ATOM_UDEF_STEREO_COUNT>
0

> <PUBCHEM_BOND_DEF_STEREO_COUNT>
2

> <PUBCHEM_BOND_UDEF_STEREO_COUNT>
0

> <PUBCHEM_ISOTOPIC_ATOM_COUNT>
0

> <PUBCHEM_COMPONENT_COUNT>
1

> <PUBCHEM_CACTVS_TAUTO_COUNT>
1

> <PUBCHEM_CONFORMER_ID>
0051A83000000001

> <PUBCHEM_MMFF94_ENERGY>
4.9149

> <PUBCHEM_FEATURE_SELFOVERLAP>
30.516

> <PUBCHEM_SHAPE_FINGERPRINT>
10616163 171 18336262465560357305
1100329 8 18123474881974018416
11513181 2 18202280307890075654
12038231 1 18338517430738338419
12422481 6 18266713914750751370
14251751 93 18263638644429664561
14251764 38 18410291389394160546
144659 178 18335709334129541588
14647877 51 18413107230473395898
20398071 114 18263640676102078997
20721686 56 18409168848194448363
238918 7 18200871915504862974
3014063 31 18411989091561920606
338550 245 18335140903976561604
373842 8 18339068291045072410
463206 1 18267310828825909896
5047190 48 17116627199680586304
59755656 215 18266176309130428119
6433294 58 18412265017208587844
6437827 68 18410575063773746452

> <PUBCHEM_SHAPE_MULTIPOLES>
399.85
10.06
5.87
0.93
4.54
1.5
0.06
-1.77
0.97
1.13
-0.41
0
-0.15
1.31

> <PUBCHEM_SHAPE_SELFOVERLAP>
741.414

> <PUBCHEM_SHAPE_VOLUME>
250.1

> <PUBCHEM_COORDINATE_TYPE>
2
5
10

$$$$
