
     RDKit          3D

 50 49  0  0  0  0  0  0  0  0999 V2000
   53.8100   40.5100   20.8080 C   0  0  0  0  0  0  0  0  0  0  0  0
   54.7600   41.6970   20.8190 C   0  0  0  0  0  0  0  0  0  0  0  0
   55.2370   42.0300   19.4370 C   0  0  0  0  0  0  0  0  0  0  0  0
   54.4170   42.2970   18.4100 C   0  0  0  0  0  0  0  0  0  0  0  0
   54.8920   42.6440   17.0280 C   0  0  0  0  0  0  0  0  0  0  0  0
   53.9150   43.5340   16.3170 C   0  0  0  0  0  0  0  0  0  0  0  0
   52.5870   43.3450   16.3330 C   0  0  0  0  0  0  0  0  0  0  0  0
   51.6090   44.2400   15.6270 C   0  0  0  0  0  0  0  0  0  0  0  0
   51.6040   45.6200   16.2160 C   0  0  0  0  0  0  0  0  0  0  0  0
   51.5040   45.8670   17.5320 C   0  0  0  0  0  0  0  0  0  0  0  0
   51.4900   47.2100   18.2120 C   0  0  0  0  0  0  0  0  0  0  0  0
   52.6080   47.5280   19.2140 C   0  0  0  0  0  0  0  0  0  0  0  0
   54.0090   47.3510   18.6190 C   0  0  0  0  0  0  0  0  0  0  0  0
   54.6690   46.0240   19.0100 C   0  0  0  0  0  0  0  0  0  0  0  0
   54.2010   45.4960   20.3690 C   0  0  0  0  0  0  0  0  0  0  0  0
   55.2530   45.7550   21.4540 C   0  0  0  0  0  0  0  0  0  0  0  0
   55.0450   47.0920   22.1590 C   0  0  0  0  0  0  0  0  0  0  0  0
   56.0570   48.1280   21.7380 C   0  0  0  0  0  0  0  0  0  0  0  0
   56.8450   47.9800   20.8130 O   0  0  0  0  0  0  0  0  0  0  0  0
   55.9990   49.2520   22.4950 O   0  0  0  0  0  0  0  0  0  0  0  0
   53.5762   40.2179   21.8424 H   0  0  0  0  0  0  0  0  0  0  0  0
   52.8820   40.7879   20.2868 H   0  0  0  0  0  0  0  0  0  0  0  0
   54.2845   39.6655   20.2868 H   0  0  0  0  0  0  0  0  0  0  0  0
   54.2371   42.5698   21.2369 H   0  0  0  0  0  0  0  0  0  0  0  0
   55.6343   41.4345   21.4327 H   0  0  0  0  0  0  0  0  0  0  0  0
   56.3215   42.0568   19.2552 H   0  0  0  0  0  0  0  0  0  0  0  0
   53.3325   42.2597   18.5904 H   0  0  0  0  0  0  0  0  0  0  0  0
   55.8592   43.1627   17.1024 H   0  0  0  0  0  0  0  0  0  0  0  0
   54.9905   41.7114   16.4530 H   0  0  0  0  0  0  0  0  0  0  0  0
   54.3103   44.3900   15.7505 H   0  0  0  0  0  0  0  0  0  0  0  0
   52.1919   42.4859   16.8950 H   0  0  0  0  0  0  0  0  0  0  0  0
   51.8866   44.3056   14.5646 H   0  0  0  0  0  0  0  0  0  0  0  0
   50.6026   43.8113   15.7424 H   0  0  0  0  0  0  0  0  0  0  0  0
   51.6869   46.4771   15.5315 H   0  0  0  0  0  0  0  0  0  0  0  0
   51.4231   44.9878   18.1880 H   0  0  0  0  0  0  0  0  0  0  0  0
   51.5319   47.9753   17.4230 H   0  0  0  0  0  0  0  0  0  0  0  0
   50.5741   47.1972   18.8211 H   0  0  0  0  0  0  0  0  0  0  0  0
   52.4964   48.5710   19.5453 H   0  0  0  0  0  0  0  0  0  0  0  0
   52.5127   46.8206   20.0510 H   0  0  0  0  0  0  0  0  0  0  0  0
   53.9308   47.3926   17.5226 H   0  0  0  0  0  0  0  0  0  0  0  0
   54.6384   48.1592   19.0199 H   0  0  0  0  0  0  0  0  0  0  0  0
   54.4288   45.2742   18.2418 H   0  0  0  0  0  0  0  0  0  0  0  0
   55.7512   46.2062   19.0847 H   0  0  0  0  0  0  0  0  0  0  0  0
   53.2650   46.0020   20.6480 H   0  0  0  0  0  0  0  0  0  0  0  0
   54.0440   44.4104   20.2867 H   0  0  0  0  0  0  0  0  0  0  0  0
   55.1960   44.9493   22.2007 H   0  0  0  0  0  0  0  0  0  0  0  0
   56.2383   45.7832   20.9657 H   0  0  0  0  0  0  0  0  0  0  0  0
   54.0379   47.4644   21.9199 H   0  0  0  0  0  0  0  0  0  0  0  0
   55.1669   46.9239   23.2392 H   0  0  0  0  0  0  0  0  0  0  0  0
   56.8870   49.5350   22.8010 H   0  0  0  0  0  0  0  0  0  0  0  0
  1  2  1  0
  2  3  1  0
  3  4  2  3
  4  5  1  0
  5  6  1  0
  6  7  2  3
  7  8  1  0
  8  9  1  0
  9 10  2  3
 10 11  1  0
 11 12  1  0
 12 13  1  0
 13 14  1  0
 14 15  1  0
 15 16  1  0
 16 17  1  0
 17 18  1  0
 18 19  2  0
 18 20  1  0
  1 21  1  0
  1 22  1  0
  1 23  1  0
  2 24  1  0
  2 25  1  0
  3 26  1  0
  4 27  1  0
  5 28  1  0
  5 29  1  0
  6 30  1  0
  7 31  1  0
  8 32  1  0
  8 33  1  0
  9 34  1  0
 10 35  1  0
 11 36  1  0
 11 37  1  0
 12 38  1  0
 12 39  1  0
 13 40  1  0
 13 41  1  0
 14 42  1  0
 14 43  1  0
 15 44  1  0
 15 45  1  0
 16 46  1  0
 16 47  1  0
 17 48  1  0
 17 49  1  0
 20 50  1  0
M  END
>  <meeko>  (1) 
{"is_sidechain": false}

$$$$
