
     RDKit          3D

 51 50  0  0  0  0  0  0  0  0999 V2000
   53.5210   40.6090   22.1810 C   0  0  0  0  0  0  0  0  0  0  0  0
   54.1480   40.7200   20.7990 C   0  0  0  0  0  0  0  0  0  0  0  0
   55.3360   41.6840   20.7460 C   0  0  0  0  0  0  0  0  0  0  0  0
   55.2070   42.7380   19.6440 C   0  0  0  0  0  0  0  0  0  0  0  0
   54.8900   42.1440   18.2650 C   0  0  0  0  0  0  0  0  0  0  0  0
   54.6970   43.1660   17.1400 C   0  0  0  0  0  0  0  0  0  0  0  0
   53.6100   42.7890   16.1760 C   0  0  0  0  0  0  0  0  0  0  0  0
   52.7690   43.6720   15.6180 C   0  0  0  0  0  0  0  0  0  0  0  0
   52.8060   45.1500   15.8830 C   0  0  0  0  0  0  0  0  0  0  0  0
   51.5020   45.6830   16.4850 C   0  0  0  0  0  0  0  0  0  0  0  0
   51.6610   46.8980   17.4080 C   0  0  0  0  0  0  0  0  0  0  0  0
   51.1760   46.6340   18.8360 C   0  0  0  0  0  0  0  0  0  0  0  0
   52.3000   46.6920   19.8770 C   0  0  0  0  0  0  0  0  0  0  0  0
   53.5330   45.8370   19.5690 C   0  0  0  0  0  0  0  0  0  0  0  0
   54.8180   46.6120   19.2700 C   0  0  0  0  0  0  0  0  0  0  0  0
   54.8320   48.0190   19.8610 C   0  0  0  0  0  0  0  0  0  0  0  0
   56.1490   48.3320   20.5290 C   0  0  0  0  0  0  0  0  0  0  0  0
   57.2600   48.1080   20.0720 O   0  0  0  0  0  0  0  0  0  0  0  0
   55.9330   48.9000   21.7430 O   0  0  0  0  0  0  0  0  0  0  0  0
   54.2974   40.7465   22.9480 H   0  0  0  0  0  0  0  0  0  0  0  0
   52.7496   41.3845   22.2970 H   0  0  0  0  0  0  0  0  0  0  0  0
   53.0627   39.6158   22.2970 H   0  0  0  0  0  0  0  0  0  0  0  0
   54.4947   39.7222   20.4923 H   0  0  0  0  0  0  0  0  0  0  0  0
   53.3765   41.1180   20.1234 H   0  0  0  0  0  0  0  0  0  0  0  0
   55.4123   42.1987   21.7151 H   0  0  0  0  0  0  0  0  0  0  0  0
   56.2327   41.0866   20.5243 H   0  0  0  0  0  0  0  0  0  0  0  0
   54.3990   43.4321   19.9185 H   0  0  0  0  0  0  0  0  0  0  0  0
   56.1806   43.2435   19.5632 H   0  0  0  0  0  0  0  0  0  0  0  0
   55.7201   41.4800   17.9821 H   0  0  0  0  0  0  0  0  0  0  0  0
   53.9265   41.6243   18.3721 H   0  0  0  0  0  0  0  0  0  0  0  0
   54.4432   44.1371   17.5901 H   0  0  0  0  0  0  0  0  0  0  0  0
   55.6377   43.2062   16.5712 H   0  0  0  0  0  0  0  0  0  0  0  0
   53.4967   41.7272   15.9120 H   0  0  0  0  0  0  0  0  0  0  0  0
   52.0055   43.2907   14.9239 H   0  0  0  0  0  0  0  0  0  0  0  0
   53.6273   45.3600   16.5840 H   0  0  0  0  0  0  0  0  0  0  0  0
   52.9523   45.6541   14.9163 H   0  0  0  0  0  0  0  0  0  0  0  0
   50.8361   45.9685   15.6573 H   0  0  0  0  0  0  0  0  0  0  0  0
   51.0997   44.8729   17.1110 H   0  0  0  0  0  0  0  0  0  0  0  0
   52.7255   47.1729   17.4449 H   0  0  0  0  0  0  0  0  0  0  0  0
   51.0411   47.7074   16.9951 H   0  0  0  0  0  0  0  0  0  0  0  0
   50.4211   47.3913   19.0943 H   0  0  0  0  0  0  0  0  0  0  0  0
   50.7634   45.6145   18.8574 H   0  0  0  0  0  0  0  0  0  0  0  0
   52.6272   47.7386   19.9637 H   0  0  0  0  0  0  0  0  0  0  0  0
   51.8730   46.2809   20.8037 H   0  0  0  0  0  0  0  0  0  0  0  0
   53.7224   45.1907   20.4388 H   0  0  0  0  0  0  0  0  0  0  0  0
   53.2936   45.2852   18.6480 H   0  0  0  0  0  0  0  0  0  0  0  0
   55.6677   46.0511   19.6863 H   0  0  0  0  0  0  0  0  0  0  0  0
   54.8841   46.7195   18.1773 H   0  0  0  0  0  0  0  0  0  0  0  0
   54.6602   48.7462   19.0538 H   0  0  0  0  0  0  0  0  0  0  0  0
   54.0395   48.0789   20.6215 H   0  0  0  0  0  0  0  0  0  0  0  0
   55.7970   48.2270   22.4420 H   0  0  0  0  0  0  0  0  0  0  0  0
  1  2  1  0
  2  3  1  0
  3  4  1  0
  4  5  1  0
  5  6  1  0
  6  7  1  0
  7  8  2  0
  8  9  1  0
  9 10  1  0
 10 11  1  0
 11 12  1  0
 12 13  1  0
 13 14  1  0
 14 15  1  0
 15 16  1  0
 16 17  1  0
 17 18  2  0
 17 19  1  0
  1 20  1  0
  1 21  1  0
  1 22  1  0
  2 23  1  0
  2 24  1  0
  3 25  1  0
  3 26  1  0
  4 27  1  0
  4 28  1  0
  5 29  1  0
  5 30  1  0
  6 31  1  0
  6 32  1  0
  7 33  1  0
  8 34  1  0
  9 35  1  0
  9 36  1  0
 10 37  1  0
 10 38  1  0
 11 39  1  0
 11 40  1  0
 12 41  1  0
 12 42  1  0
 13 43  1  0
 13 44  1  0
 14 45  1  0
 14 46  1  0
 15 47  1  0
 15 48  1  0
 16 49  1  0
 16 50  1  0
 19 51  1  0
M  END
>  <meeko>  (1) 
{"is_sidechain": false}

$$$$
