
     RDKit          3D

 52 51  0  0  0  0  0  0  0  0999 V2000
   54.3930   40.9610   19.9930 C   0  0  0  0  0  0  0  0  0  0  0  0
   55.3770   42.0980   19.7660 C   0  0  0  0  0  0  0  0  0  0  0  0
   54.6870   43.4290   19.7800 C   0  0  0  0  0  0  0  0  0  0  0  0
   54.4210   44.1430   18.6760 C   0  0  0  0  0  0  0  0  0  0  0  0
   54.7800   43.6990   17.2880 C   0  0  0  0  0  0  0  0  0  0  0  0
   53.7380   42.7780   16.7220 C   0  0  0  0  0  0  0  0  0  0  0  0
   52.6970   43.1050   15.9390 C   0  0  0  0  0  0  0  0  0  0  0  0
   52.3300   44.4680   15.4330 C   0  0  0  0  0  0  0  0  0  0  0  0
   51.4020   45.1720   16.3800 C   0  0  0  0  0  0  0  0  0  0  0  0
   51.7050   46.3250   16.9950 C   0  0  0  0  0  0  0  0  0  0  0  0
   53.0050   47.0520   16.8140 C   0  0  0  0  0  0  0  0  0  0  0  0
   52.9720   48.3980   17.4760 C   0  0  0  0  0  0  0  0  0  0  0  0
   53.3910   48.6160   18.7320 C   0  0  0  0  0  0  0  0  0  0  0  0
   53.9420   47.5450   19.6290 C   0  0  0  0  0  0  0  0  0  0  0  0
   52.8880   47.0360   20.5670 C   0  0  0  0  0  0  0  0  0  0  0  0
   53.0470   46.9510   21.8960 C   0  0  0  0  0  0  0  0  0  0  0  0
   54.3020   47.3580   22.6090 C   0  0  0  0  0  0  0  0  0  0  0  0
   54.4080   48.8750   22.8120 C   0  0  0  0  0  0  0  0  0  0  0  0
   53.2300   49.5040   23.5530 C   0  0  0  0  0  0  0  0  0  0  0  0
   53.5970   50.7740   24.2730 C   0  0  0  0  0  0  0  0  0  0  0  0
   54.6150   50.9300   24.9340 O   0  0  0  0  0  0  0  0  0  0  0  0
   52.6600   51.7350   24.0850 O   0  0  0  0  0  0  0  0  0  0  0  0
   54.2571   40.8039   21.0732 H   0  0  0  0  0  0  0  0  0  0  0  0
   53.4260   41.2161   19.5350 H   0  0  0  0  0  0  0  0  0  0  0  0
   54.7842   40.0406   19.5350 H   0  0  0  0  0  0  0  0  0  0  0  0
   56.1353   42.0795   20.5626 H   0  0  0  0  0  0  0  0  0  0  0  0
   55.8439   41.9603   18.7796 H   0  0  0  0  0  0  0  0  0  0  0  0
   54.3812   43.8440   20.7517 H   0  0  0  0  0  0  0  0  0  0  0  0
   53.9102   45.1099   18.7949 H   0  0  0  0  0  0  0  0  0  0  0  0
   54.8660   44.5837   16.6400 H   0  0  0  0  0  0  0  0  0  0  0  0
   55.7351   43.1553   17.3341 H   0  0  0  0  0  0  0  0  0  0  0  0
   53.8388   41.7130   16.9781 H   0  0  0  0  0  0  0  0  0  0  0  0
   52.0383   42.2785   15.6340 H   0  0  0  0  0  0  0  0  0  0  0  0
   53.2461   45.0660   15.3187 H   0  0  0  0  0  0  0  0  0  0  0  0
   51.8166   44.3522   14.4671 H   0  0  0  0  0  0  0  0  0  0  0  0
   50.4204   44.7178   16.5804 H   0  0  0  0  0  0  0  0  0  0  0  0
   50.9566   46.7632   17.6716 H   0  0  0  0  0  0  0  0  0  0  0  0
   53.8149   46.4541   17.2573 H   0  0  0  0  0  0  0  0  0  0  0  0
   53.1748   47.1981   15.7370 H   0  0  0  0  0  0  0  0  0  0  0  0
   52.5836   49.2516   16.9011 H   0  0  0  0  0  0  0  0  0  0  0  0
   53.3271   49.6402   19.1282 H   0  0  0  0  0  0  0  0  0  0  0  0
   54.3073   46.7112   19.0115 H   0  0  0  0  0  0  0  0  0  0  0  0
   54.7632   47.9728   20.2228 H   0  0  0  0  0  0  0  0  0  0  0  0
   51.9273   46.7132   20.1394 H   0  0  0  0  0  0  0  0  0  0  0  0
   52.2112   46.5615   22.4958 H   0  0  0  0  0  0  0  0  0  0  0  0
   54.3198   46.8699   23.5946 H   0  0  0  0  0  0  0  0  0  0  0  0
   55.1523   47.0484   21.9835 H   0  0  0  0  0  0  0  0  0  0  0  0
   55.3233   49.0806   23.3865 H   0  0  0  0  0  0  0  0  0  0  0  0
   54.4176   49.3228   21.8073 H   0  0  0  0  0  0  0  0  0  0  0  0
   52.4383   49.7310   22.8238 H   0  0  0  0  0  0  0  0  0  0  0  0
   52.8954   48.7812   24.3117 H   0  0  0  0  0  0  0  0  0  0  0  0
   51.9910   51.4690   23.4190 H   0  0  0  0  0  0  0  0  0  0  0  0
  1  2  1  0
  2  3  1  0
  3  4  2  0
  4  5  1  0
  5  6  1  0
  6  7  2  0
  7  8  1  0
  8  9  1  0
  9 10  2  0
 10 11  1  0
 11 12  1  0
 12 13  2  0
 13 14  1  0
 14 15  1  0
 15 16  2  0
 16 17  1  0
 17 18  1  0
 18 19  1  0
 19 20  1  0
 20 21  2  0
 20 22  1  0
  1 23  1  0
  1 24  1  0
  1 25  1  0
  2 26  1  0
  2 27  1  0
  3 28  1  0
  4 29  1  0
  5 30  1  0
  5 31  1  0
  6 32  1  0
  7 33  1  0
  8 34  1  0
  8 35  1  0
  9 36  1  0
 10 37  1  0
 11 38  1  0
 11 39  1  0
 12 40  1  0
 13 41  1  0
 14 42  1  0
 14 43  1  0
 15 44  1  0
 16 45  1  0
 17 46  1  0
 17 47  1  0
 18 48  1  0
 18 49  1  0
 19 50  1  0
 19 51  1  0
 22 52  1  0
M  END
>  <meeko>  (1) 
{"is_sidechain": false}

$$$$
