
     RDKit          3D

 50 49  0  0  0  0  0  0  0  0999 V2000
   53.4980   40.2210   21.5580 C   0  0  0  0  0  0  0  0  0  0  0  0
   54.5140   40.3670   20.4370 C   0  0  0  0  0  0  0  0  0  0  0  0
   55.5200   41.4980   20.6610 C   0  0  0  0  0  0  0  0  0  0  0  0
   55.2680   42.7180   19.7720 C   0  0  0  0  0  0  0  0  0  0  0  0
   54.2650   42.3990   18.6600 C   0  0  0  0  0  0  0  0  0  0  0  0
   54.8490   42.6860   17.3070 C   0  0  0  0  0  0  0  0  0  0  0  0
   54.1140   42.9580   16.2200 C   0  0  0  0  0  0  0  0  0  0  0  0
   52.6140   43.0090   16.2150 C   0  0  0  0  0  0  0  0  0  0  0  0
   52.1080   44.2840   15.6050 C   0  0  0  0  0  0  0  0  0  0  0  0
   51.9070   45.4580   16.2240 C   0  0  0  0  0  0  0  0  0  0  0  0
   52.1380   45.7650   17.6750 C   0  0  0  0  0  0  0  0  0  0  0  0
   53.5400   46.2410   17.9170 C   0  0  0  0  0  0  0  0  0  0  0  0
   54.1170   46.2520   19.1280 C   0  0  0  0  0  0  0  0  0  0  0  0
   53.4360   45.7910   20.3840 C   0  0  0  0  0  0  0  0  0  0  0  0
   52.8830   46.9480   21.2220 C   0  0  0  0  0  0  0  0  0  0  0  0
   53.7790   47.3300   22.4040 C   0  0  0  0  0  0  0  0  0  0  0  0
   54.5700   48.6040   22.1050 C   0  0  0  0  0  0  0  0  0  0  0  0
   55.9410   48.2990   21.5560 C   0  0  0  0  0  0  0  0  0  0  0  0
   56.6870   47.4070   21.9330 O   0  0  0  0  0  0  0  0  0  0  0  0
   56.2380   49.1580   20.5470 O   0  0  0  0  0  0  0  0  0  0  0  0
   54.0100   40.2946   22.5288 H   0  0  0  0  0  0  0  0  0  0  0  0
   52.7466   41.0204   21.4782 H   0  0  0  0  0  0  0  0  0  0  0  0
   53.0021   39.2424   21.4782 H   0  0  0  0  0  0  0  0  0  0  0  0
   55.0690   39.4216   20.3463 H   0  0  0  0  0  0  0  0  0  0  0  0
   53.9518   40.6134   19.5242 H   0  0  0  0  0  0  0  0  0  0  0  0
   55.4609   41.8144   21.7128 H   0  0  0  0  0  0  0  0  0  0  0  0
   56.5142   41.1056   20.4011 H   0  0  0  0  0  0  0  0  0  0  0  0
   54.8692   43.5356   20.3904 H   0  0  0  0  0  0  0  0  0  0  0  0
   56.2207   43.0108   19.3065 H   0  0  0  0  0  0  0  0  0  0  0  0
   53.9934   41.3345   18.7156 H   0  0  0  0  0  0  0  0  0  0  0  0
   53.3764   43.0324   18.7986 H   0  0  0  0  0  0  0  0  0  0  0  0
   55.9439   42.6722   17.2018 H   0  0  0  0  0  0  0  0  0  0  0  0
   54.6414   43.1557   15.2751 H   0  0  0  0  0  0  0  0  0  0  0  0
   52.2295   42.1578   15.6340 H   0  0  0  0  0  0  0  0  0  0  0  0
   52.2640   42.9626   17.2568 H   0  0  0  0  0  0  0  0  0  0  0  0
   51.8759   44.2526   14.5302 H   0  0  0  0  0  0  0  0  0  0  0  0
   51.5328   46.2837   15.6010 H   0  0  0  0  0  0  0  0  0  0  0  0
   51.4342   46.5489   17.9915 H   0  0  0  0  0  0  0  0  0  0  0  0
   51.9807   44.8427   18.2535 H   0  0  0  0  0  0  0  0  0  0  0  0
   54.1250   46.5995   17.0571 H   0  0  0  0  0  0  0  0  0  0  0  0
   55.1505   46.6207   19.2053 H   0  0  0  0  0  0  0  0  0  0  0  0
   52.6028   45.1279   20.1083 H   0  0  0  0  0  0  0  0  0  0  0  0
   54.1883   45.2710   20.9953 H   0  0  0  0  0  0  0  0  0  0  0  0
   52.7722   47.8275   20.5708 H   0  0  0  0  0  0  0  0  0  0  0  0
   51.9218   46.6140   21.6397 H   0  0  0  0  0  0  0  0  0  0  0  0
   53.1512   47.4968   23.2917 H   0  0  0  0  0  0  0  0  0  0  0  0
   54.4906   46.5104   22.5826 H   0  0  0  0  0  0  0  0  0  0  0  0
   54.0159   49.2014   21.3661 H   0  0  0  0  0  0  0  0  0  0  0  0
   54.6956   49.1564   23.0479 H   0  0  0  0  0  0  0  0  0  0  0  0
   55.5250   49.1920   19.8750 H   0  0  0  0  0  0  0  0  0  0  0  0
  1  2  1  0
  2  3  1  0
  3  4  1  0
  4  5  1  0
  5  6  1  0
  6  7  2  0
  7  8  1  0
  8  9  1  0
  9 10  2  0
 10 11  1  0
 11 12  1  0
 12 13  2  0
 13 14  1  0
 14 15  1  0
 15 16  1  0
 16 17  1  0
 17 18  1  0
 18 19  2  0
 18 20  1  0
  1 21  1  0
  1 22  1  0
  1 23  1  0
  2 24  1  0
  2 25  1  0
  3 26  1  0
  3 27  1  0
  4 28  1  0
  4 29  1  0
  5 30  1  0
  5 31  1  0
  6 32  1  0
  7 33  1  0
  8 34  1  0
  8 35  1  0
  9 36  1  0
 10 37  1  0
 11 38  1  0
 11 39  1  0
 12 40  1  0
 13 41  1  0
 14 42  1  0
 14 43  1  0
 15 44  1  0
 15 45  1  0
 16 46  1  0
 16 47  1  0
 17 48  1  0
 17 49  1  0
 20 50  1  0
M  END
>  <meeko>  (1) 
{"is_sidechain": false}

$$$$
