
     RDKit          3D

 53 52  0  0  0  0  0  0  0  0999 V2000
   53.5230   40.7850   22.2330 C   0  0  0  0  0  0  0  0  0  0  0  0
   53.6050   40.5640   20.7300 C   0  0  0  0  0  0  0  0  0  0  0  0
   55.0450   40.6780   20.2280 C   0  0  0  0  0  0  0  0  0  0  0  0
   55.2120   41.6700   19.0740 C   0  0  0  0  0  0  0  0  0  0  0  0
   54.9540   43.1410   19.4150 C   0  0  0  0  0  0  0  0  0  0  0  0
   54.4860   43.9720   18.2180 C   0  0  0  0  0  0  0  0  0  0  0  0
   54.4080   43.1190   16.9480 C   0  0  0  0  0  0  0  0  0  0  0  0
   52.9580   42.9100   16.5100 C   0  0  0  0  0  0  0  0  0  0  0  0
   52.4800   43.9300   15.4720 C   0  0  0  0  0  0  0  0  0  0  0  0
   52.5600   45.4010   15.8920 C   0  0  0  0  0  0  0  0  0  0  0  0
   51.5760   45.7710   17.0040 C   0  0  0  0  0  0  0  0  0  0  0  0
   51.6730   47.2590   17.3540 C   0  0  0  0  0  0  0  0  0  0  0  0
   53.1310   47.7180   17.4220 C   0  0  0  0  0  0  0  0  0  0  0  0
   53.4790   48.4490   18.7220 C   0  0  0  0  0  0  0  0  0  0  0  0
   53.9090   47.5110   19.8510 C   0  0  0  0  0  0  0  0  0  0  0  0
   55.3950   47.1690   19.7530 C   0  0  0  0  0  0  0  0  0  0  0  0
   56.2420   48.0990   20.5870 C   0  0  0  0  0  0  0  0  0  0  0  0
   56.4350   49.2850   20.3730 O   0  0  0  0  0  0  0  0  0  0  0  0
   56.7710   47.4250   21.6400 O   0  0  0  0  0  0  0  0  0  0  0  0
   53.8597   39.8777   22.7559 H   0  0  0  0  0  0  0  0  0  0  0  0
   54.1671   41.6310   22.5149 H   0  0  0  0  0  0  0  0  0  0  0  0
   52.4830   41.0061   22.5149 H   0  0  0  0  0  0  0  0  0  0  0  0
   53.2220   39.5601   20.4943 H   0  0  0  0  0  0  0  0  0  0  0  0
   53.0022   41.3380   20.2325 H   0  0  0  0  0  0  0  0  0  0  0  0
   55.6803   41.0060   21.0639 H   0  0  0  0  0  0  0  0  0  0  0  0
   55.3348   39.6873   19.8479 H   0  0  0  0  0  0  0  0  0  0  0  0
   56.2443   41.5857   18.7036 H   0  0  0  0  0  0  0  0  0  0  0  0
   54.4463   41.3970   18.3330 H   0  0  0  0  0  0  0  0  0  0  0  0
   54.1796   43.1870   20.1949 H   0  0  0  0  0  0  0  0  0  0  0  0
   55.9105   43.5678   19.7512 H   0  0  0  0  0  0  0  0  0  0  0  0
   53.4896   44.3843   18.4351 H   0  0  0  0  0  0  0  0  0  0  0  0
   55.2123   44.7809   18.0502 H   0  0  0  0  0  0  0  0  0  0  0  0
   54.9570   43.6262   16.1409 H   0  0  0  0  0  0  0  0  0  0  0  0
   54.8525   42.1356   17.1612 H   0  0  0  0  0  0  0  0  0  0  0  0
   52.8670   41.9032   16.0763 H   0  0  0  0  0  0  0  0  0  0  0  0
   52.3287   43.0381   17.4030 H   0  0  0  0  0  0  0  0  0  0  0  0
   53.0941   43.8039   14.5682 H   0  0  0  0  0  0  0  0  0  0  0  0
   51.4105   43.7217   15.3211 H   0  0  0  0  0  0  0  0  0  0  0  0
   53.5806   45.6070   16.2470 H   0  0  0  0  0  0  0  0  0  0  0  0
   52.2958   46.0046   15.0111 H   0  0  0  0  0  0  0  0  0  0  0  0
   50.5529   45.5471   16.6675 H   0  0  0  0  0  0  0  0  0  0  0  0
   51.8254   45.1844   17.9005 H   0  0  0  0  0  0  0  0  0  0  0  0
   51.1484   47.8436   16.5839 H   0  0  0  0  0  0  0  0  0  0  0  0
   51.2125   47.4153   18.3407 H   0  0  0  0  0  0  0  0  0  0  0  0
   53.7793   46.8336   17.3351 H   0  0  0  0  0  0  0  0  0  0  0  0
   53.2859   48.4299   16.5979 H   0  0  0  0  0  0  0  0  0  0  0  0
   54.3023   49.1495   18.5183 H   0  0  0  0  0  0  0  0  0  0  0  0
   52.5673   48.9646   19.0582 H   0  0  0  0  0  0  0  0  0  0  0  0
   53.7171   48.0012   20.8168 H   0  0  0  0  0  0  0  0  0  0  0  0
   53.3318   46.5784   19.7664 H   0  0  0  0  0  0  0  0  0  0  0  0
   55.5467   46.1379   20.1049 H   0  0  0  0  0  0  0  0  0  0  0  0
   55.7017   47.2782   18.7023 H   0  0  0  0  0  0  0  0  0  0  0  0
   57.6760   47.7370   21.8560 H   0  0  0  0  0  0  0  0  0  0  0  0
  1  2  1  0
  2  3  1  0
  3  4  1  0
  4  5  1  0
  5  6  1  0
  6  7  1  0
  7  8  1  0
  8  9  1  0
  9 10  1  0
 10 11  1  0
 11 12  1  0
 12 13  1  0
 13 14  1  0
 14 15  1  0
 15 16  1  0
 16 17  1  0
 17 18  2  0
 17 19  1  0
  1 20  1  0
  1 21  1  0
  1 22  1  0
  2 23  1  0
  2 24  1  0
  3 25  1  0
  3 26  1  0
  4 27  1  0
  4 28  1  0
  5 29  1  0
  5 30  1  0
  6 31  1  0
  6 32  1  0
  7 33  1  0
  7 34  1  0
  8 35  1  0
  8 36  1  0
  9 37  1  0
  9 38  1  0
 10 39  1  0
 10 40  1  0
 11 41  1  0
 11 42  1  0
 12 43  1  0
 12 44  1  0
 13 45  1  0
 13 46  1  0
 14 47  1  0
 14 48  1  0
 15 49  1  0
 15 50  1  0
 16 51  1  0
 16 52  1  0
 19 53  1  0
M  END
>  <meeko>  (1) 
{"is_sidechain": false}

$$$$
