
     RDKit          3D

 47 46  0  0  0  0  0  0  0  0999 V2000
   55.4580   41.6830   20.3520 C   0  0  0  0  0  0  0  0  0  0  0  0
   55.2130   43.1810   20.4360 C   0  0  0  0  0  0  0  0  0  0  0  0
   54.7880   43.7560   19.0850 C   0  0  0  0  0  0  0  0  0  0  0  0
   54.4950   42.6450   18.0750 C   0  0  0  0  0  0  0  0  0  0  0  0
   54.5290   43.1770   16.6410 C   0  0  0  0  0  0  0  0  0  0  0  0
   53.1410   43.3100   16.0060 C   0  0  0  0  0  0  0  0  0  0  0  0
   52.7800   44.7470   15.6260 C   0  0  0  0  0  0  0  0  0  0  0  0
   51.4780   45.1880   16.2990 C   0  0  0  0  0  0  0  0  0  0  0  0
   51.7160   46.3460   17.2690 C   0  0  0  0  0  0  0  0  0  0  0  0
   53.1760   46.8040   17.2390 C   0  0  0  0  0  0  0  0  0  0  0  0
   53.3270   48.2090   17.8230 C   0  0  0  0  0  0  0  0  0  0  0  0
   53.8200   48.2370   19.2750 C   0  0  0  0  0  0  0  0  0  0  0  0
   55.0170   47.3270   19.5530 C   0  0  0  0  0  0  0  0  0  0  0  0
   56.0310   47.9310   20.4970 C   0  0  0  0  0  0  0  0  0  0  0  0
   56.4820   49.0660   20.4100 O   0  0  0  0  0  0  0  0  0  0  0  0
   56.3310   47.0250   21.4740 O   0  0  0  0  0  0  0  0  0  0  0  0
   55.2320   46.6170   22.2930 C   0  0  0  0  0  0  0  0  0  0  0  0
   55.5263   41.2651   21.3672 H   0  0  0  0  0  0  0  0  0  0  0  0
   54.6261   41.2050   19.8140 H   0  0  0  0  0  0  0  0  0  0  0  0
   56.3988   41.4949   19.8140 H   0  0  0  0  0  0  0  0  0  0  0  0
   54.4181   43.3724   21.1719 H   0  0  0  0  0  0  0  0  0  0  0  0
   56.1520   43.6678   20.7381 H   0  0  0  0  0  0  0  0  0  0  0  0
   53.8810   44.3628   19.2233 H   0  0  0  0  0  0  0  0  0  0  0  0
   55.6123   44.3711   18.6949 H   0  0  0  0  0  0  0  0  0  0  0  0
   55.2519   41.8541   18.1822 H   0  0  0  0  0  0  0  0  0  0  0  0
   53.4886   42.2489   18.2755 H   0  0  0  0  0  0  0  0  0  0  0  0
   55.0050   44.1687   16.6486 H   0  0  0  0  0  0  0  0  0  0  0  0
   55.0922   42.4489   16.0388 H   0  0  0  0  0  0  0  0  0  0  0  0
   53.1133   42.6918   15.0966 H   0  0  0  0  0  0  0  0  0  0  0  0
   52.4082   42.9797   16.7570 H   0  0  0  0  0  0  0  0  0  0  0  0
   53.5926   45.4169   15.9436 H   0  0  0  0  0  0  0  0  0  0  0  0
   52.6415   44.7943   14.5358 H   0  0  0  0  0  0  0  0  0  0  0  0
   50.7661   45.5102   15.5247 H   0  0  0  0  0  0  0  0  0  0  0  0
   51.0767   44.3365   16.8681 H   0  0  0  0  0  0  0  0  0  0  0  0
   51.0697   47.1897   16.9855 H   0  0  0  0  0  0  0  0  0  0  0  0
   51.4807   46.0010   18.2867 H   0  0  0  0  0  0  0  0  0  0  0  0
   53.7842   46.1028   17.8293 H   0  0  0  0  0  0  0  0  0  0  0  0
   53.5133   46.8239   16.1922 H   0  0  0  0  0  0  0  0  0  0  0  0
   54.0466   48.7644   17.2036 H   0  0  0  0  0  0  0  0  0  0  0  0
   52.3243   48.6614   17.8210 H   0  0  0  0  0  0  0  0  0  0  0  0
   54.1085   49.2697   19.5206 H   0  0  0  0  0  0  0  0  0  0  0  0
   52.9915   47.8644   19.8952 H   0  0  0  0  0  0  0  0  0  0  0  0
   54.6463   46.3901   19.9942 H   0  0  0  0  0  0  0  0  0  0  0  0
   55.5279   47.1643   18.5925 H   0  0  0  0  0  0  0  0  0  0  0  0
   55.5070   46.7191   23.3532 H   0  0  0  0  0  0  0  0  0  0  0  0
   54.3592   47.2510   22.0779 H   0  0  0  0  0  0  0  0  0  0  0  0
   54.9844   45.5670   22.0779 H   0  0  0  0  0  0  0  0  0  0  0  0
  1  2  1  0
  2  3  1  0
  3  4  1  0
  4  5  1  0
  5  6  1  0
  6  7  1  0
  7  8  1  0
  8  9  1  0
  9 10  1  0
 10 11  1  0
 11 12  1  0
 12 13  1  0
 13 14  1  0
 14 15  2  0
 14 16  1  0
 16 17  1  0
  1 18  1  0
  1 19  1  0
  1 20  1  0
  2 21  1  0
  2 22  1  0
  3 23  1  0
  3 24  1  0
  4 25  1  0
  4 26  1  0
  5 27  1  0
  5 28  1  0
  6 29  1  0
  6 30  1  0
  7 31  1  0
  7 32  1  0
  8 33  1  0
  8 34  1  0
  9 35  1  0
  9 36  1  0
 10 37  1  0
 10 38  1  0
 11 39  1  0
 11 40  1  0
 12 41  1  0
 12 42  1  0
 13 43  1  0
 13 44  1  0
 17 45  1  0
 17 46  1  0
 17 47  1  0
M  END
>  <meeko>  (1) 
{"is_sidechain": false}

$$$$
