
     RDKit          3D

 56 55  0  0  0  0  0  0  0  0999 V2000
   53.2530   40.3900   21.1610 C   0  0  0  0  0  0  0  0  0  0  0  0
   54.6040   40.8660   21.6730 C   0  0  0  0  0  0  0  0  0  0  0  0
   55.4280   41.6150   20.6240 C   0  0  0  0  0  0  0  0  0  0  0  0
   55.2040   43.1300   20.6460 C   0  0  0  0  0  0  0  0  0  0  0  0
   54.6580   43.6820   19.3250 C   0  0  0  0  0  0  0  0  0  0  0  0
   54.5860   42.6330   18.2110 C   0  0  0  0  0  0  0  0  0  0  0  0
   54.5310   43.2440   16.8070 C   0  0  0  0  0  0  0  0  0  0  0  0
   53.4630   42.6130   15.9110 C   0  0  0  0  0  0  0  0  0  0  0  0
   52.4630   43.6610   15.4170 C   0  0  0  0  0  0  0  0  0  0  0  0
   52.7590   45.0370   16.0220 C   0  0  0  0  0  0  0  0  0  0  0  0
   51.5150   45.7140   16.6070 C   0  0  0  0  0  0  0  0  0  0  0  0
   51.8090   46.8990   17.5350 C   0  0  0  0  0  0  0  0  0  0  0  0
   51.5680   46.6080   19.0160 C   0  0  0  0  0  0  0  0  0  0  0  0
   52.7520   46.9940   19.9100 C   0  0  0  0  0  0  0  0  0  0  0  0
   53.8720   47.7150   19.1520 C   0  0  0  0  0  0  0  0  0  0  0  0
   55.2510   47.1290   19.4570 C   0  0  0  0  0  0  0  0  0  0  0  0
   55.9390   47.8060   20.6210 C   0  0  0  0  0  0  0  0  0  0  0  0
   56.2140   48.9950   20.6900 O   0  0  0  0  0  0  0  0  0  0  0  0
   56.2360   46.8780   21.5760 O   0  0  0  0  0  0  0  0  0  0  0  0
   55.2490   46.7660   22.6020 C   0  0  0  0  0  0  0  0  0  0  0  0
   52.5981   40.1593   22.0142 H   0  0  0  0  0  0  0  0  0  0  0  0
   52.7935   41.1804   20.5493 H   0  0  0  0  0  0  0  0  0  0  0  0
   53.3904   39.4862   20.5493 H   0  0  0  0  0  0  0  0  0  0  0  0
   54.4349   41.5382   22.5271 H   0  0  0  0  0  0  0  0  0  0  0  0
   55.1767   39.9695   21.9527 H   0  0  0  0  0  0  0  0  0  0  0  0
   56.4938   41.4169   20.8107 H   0  0  0  0  0  0  0  0  0  0  0  0
   55.1056   41.2524   19.6368 H   0  0  0  0  0  0  0  0  0  0  0  0
   54.4862   43.3651   21.4457 H   0  0  0  0  0  0  0  0  0  0  0  0
   56.1833   43.6014   20.8157 H   0  0  0  0  0  0  0  0  0  0  0  0
   53.6450   44.0724   19.5023 H   0  0  0  0  0  0  0  0  0  0  0  0
   55.3526   44.4658   18.9887 H   0  0  0  0  0  0  0  0  0  0  0  0
   55.4766   41.9908   18.2778 H   0  0  0  0  0  0  0  0  0  0  0  0
   53.6548   42.0659   18.3567 H   0  0  0  0  0  0  0  0  0  0  0  0
   54.3156   44.3185   16.9025 H   0  0  0  0  0  0  0  0  0  0  0  0
   55.5054   43.0558   16.3326 H   0  0  0  0  0  0  0  0  0  0  0  0
   53.9526   42.1475   15.0429 H   0  0  0  0  0  0  0  0  0  0  0  0
   52.9164   41.8607   16.4986 H   0  0  0  0  0  0  0  0  0  0  0  0
   52.5270   43.7295   14.3210 H   0  0  0  0  0  0  0  0  0  0  0  0
   51.4537   43.3534   15.7279 H   0  0  0  0  0  0  0  0  0  0  0  0
   53.5015   44.9148   16.8243 H   0  0  0  0  0  0  0  0  0  0  0  0
   53.1326   45.6795   15.2111 H   0  0  0  0  0  0  0  0  0  0  0  0
   50.8976   46.0771   15.7722 H   0  0  0  0  0  0  0  0  0  0  0  0
   51.0076   44.9557   17.2214 H   0  0  0  0  0  0  0  0  0  0  0  0
   52.8634   47.1849   17.4065 H   0  0  0  0  0  0  0  0  0  0  0  0
   51.1129   47.7026   17.2528 H   0  0  0  0  0  0  0  0  0  0  0  0
   50.6838   47.1743   19.3438 H   0  0  0  0  0  0  0  0  0  0  0  0
   51.4248   45.5219   19.1157 H   0  0  0  0  0  0  0  0  0  0  0  0
   52.3861   47.6577   20.7072 H   0  0  0  0  0  0  0  0  0  0  0  0
   53.1764   46.0615   20.3104 H   0  0  0  0  0  0  0  0  0  0  0  0
   53.6815   47.6273   18.0722 H   0  0  0  0  0  0  0  0  0  0  0  0
   53.8744   48.7662   19.4759 H   0  0  0  0  0  0  0  0  0  0  0  0
   55.1332   46.0611   19.6930 H   0  0  0  0  0  0  0  0  0  0  0  0
   55.8787   47.2875   18.5677 H   0  0  0  0  0  0  0  0  0  0  0  0
   55.7359   46.8213   23.5868 H   0  0  0  0  0  0  0  0  0  0  0  0
   54.5241   47.5877   22.5047 H   0  0  0  0  0  0  0  0  0  0  0  0
   54.7267   45.8028   22.5047 H   0  0  0  0  0  0  0  0  0  0  0  0
  1  2  1  0
  2  3  1  0
  3  4  1  0
  4  5  1  0
  5  6  1  0
  6  7  1  0
  7  8  1  0
  8  9  1  0
  9 10  1  0
 10 11  1  0
 11 12  1  0
 12 13  1  0
 13 14  1  0
 14 15  1  0
 15 16  1  0
 16 17  1  0
 17 18  2  0
 17 19  1  0
 19 20  1  0
  1 21  1  0
  1 22  1  0
  1 23  1  0
  2 24  1  0
  2 25  1  0
  3 26  1  0
  3 27  1  0
  4 28  1  0
  4 29  1  0
  5 30  1  0
  5 31  1  0
  6 32  1  0
  6 33  1  0
  7 34  1  0
  7 35  1  0
  8 36  1  0
  8 37  1  0
  9 38  1  0
  9 39  1  0
 10 40  1  0
 10 41  1  0
 11 42  1  0
 11 43  1  0
 12 44  1  0
 12 45  1  0
 13 46  1  0
 13 47  1  0
 14 48  1  0
 14 49  1  0
 15 50  1  0
 15 51  1  0
 16 52  1  0
 16 53  1  0
 20 54  1  0
 20 55  1  0
 20 56  1  0
M  END
>  <meeko>  (1) 
{"is_sidechain": false}

$$$$
