
     RDKit          3D

 55 54  0  0  0  0  0  0  0  0999 V2000
   53.1450   49.1570   17.3820 C   0  0  0  0  0  0  0  0  0  0  0  0
   53.2130   48.4170   18.7080 C   0  0  0  0  0  0  0  0  0  0  0  0
   51.8950   47.7890   19.0500 C   0  0  0  0  0  0  0  0  0  0  0  0
   51.5320   46.5550   18.6700 C   0  0  0  0  0  0  0  0  0  0  0  0
   52.4050   45.6500   17.8510 C   0  0  0  0  0  0  0  0  0  0  0  0
   51.9310   45.5640   16.4290 C   0  0  0  0  0  0  0  0  0  0  0  0
   51.9980   44.4480   15.6890 C   0  0  0  0  0  0  0  0  0  0  0  0
   52.5540   43.1460   16.1900 C   0  0  0  0  0  0  0  0  0  0  0  0
   54.0550   43.1440   16.1650 C   0  0  0  0  0  0  0  0  0  0  0  0
   54.8110   42.7130   17.1860 C   0  0  0  0  0  0  0  0  0  0  0  0
   54.2530   42.1810   18.4750 C   0  0  0  0  0  0  0  0  0  0  0  0
   55.2010   42.1910   19.6460 C   0  0  0  0  0  0  0  0  0  0  0  0
   55.2950   43.1120   20.6200 C   0  0  0  0  0  0  0  0  0  0  0  0
   54.4280   44.3350   20.6940 C   0  0  0  0  0  0  0  0  0  0  0  0
   55.1600   45.5620   20.2340 C   0  0  0  0  0  0  0  0  0  0  0  0
   55.4130   46.6170   21.0220 C   0  0  0  0  0  0  0  0  0  0  0  0
   54.9960   46.7020   22.4620 C   0  0  0  0  0  0  0  0  0  0  0  0
   53.6670   47.4400   22.6160 C   0  0  0  0  0  0  0  0  0  0  0  0
   53.8540   48.9500   22.4760 C   0  0  0  0  0  0  0  0  0  0  0  0
   52.8030   49.7260   23.2370 C   0  0  0  0  0  0  0  0  0  0  0  0
   51.7490   50.1320   22.7680 O   0  0  0  0  0  0  0  0  0  0  0  0
   53.2230   49.8920   24.5260 O   0  0  0  0  0  0  0  0  0  0  0  0
   54.3940   50.6970   24.6940 C   0  0  0  0  0  0  0  0  0  0  0  0
   53.0458   50.2364   17.5692 H   0  0  0  0  0  0  0  0  0  0  0  0
   54.0644   48.9672   16.8086 H   0  0  0  0  0  0  0  0  0  0  0  0
   52.2756   48.8029   16.8086 H   0  0  0  0  0  0  0  0  0  0  0  0
   53.9781   47.6296   18.6400 H   0  0  0  0  0  0  0  0  0  0  0  0
   53.4678   49.1404   19.4965 H   0  0  0  0  0  0  0  0  0  0  0  0
   51.1828   48.3758   19.6487 H   0  0  0  0  0  0  0  0  0  0  0  0
   50.5414   46.1866   18.9750 H   0  0  0  0  0  0  0  0  0  0  0  0
   53.4334   46.0403   17.8616 H   0  0  0  0  0  0  0  0  0  0  0  0
   52.3631   44.6420   18.2894 H   0  0  0  0  0  0  0  0  0  0  0  0
   51.5048   46.4674   15.9684 H   0  0  0  0  0  0  0  0  0  0  0  0
   51.6242   44.4884   14.6553 H   0  0  0  0  0  0  0  0  0  0  0  0
   52.2133   42.9857   17.2236 H   0  0  0  0  0  0  0  0  0  0  0  0
   52.1963   42.3411   15.5311 H   0  0  0  0  0  0  0  0  0  0  0  0
   54.5616   43.5155   15.2620 H   0  0  0  0  0  0  0  0  0  0  0  0
   55.9044   42.7515   17.0724 H   0  0  0  0  0  0  0  0  0  0  0  0
   53.3776   42.7910   18.7426 H   0  0  0  0  0  0  0  0  0  0  0  0
   54.0162   41.1233   18.2875 H   0  0  0  0  0  0  0  0  0  0  0  0
   55.8993   41.3436   19.7114 H   0  0  0  0  0  0  0  0  0  0  0  0
   56.0490   42.9613   21.4066 H   0  0  0  0  0  0  0  0  0  0  0  0
   53.5453   44.1857   20.0548 H   0  0  0  0  0  0  0  0  0  0  0  0
   54.1336   44.4841   21.7433 H   0  0  0  0  0  0  0  0  0  0  0  0
   55.5087   45.5978   19.1913 H   0  0  0  0  0  0  0  0  0  0  0  0
   55.9572   47.4691   20.5887 H   0  0  0  0  0  0  0  0  0  0  0  0
   54.8884   45.6837   22.8639 H   0  0  0  0  0  0  0  0  0  0  0  0
   55.7673   47.2602   23.0129 H   0  0  0  0  0  0  0  0  0  0  0  0
   52.9707   47.0911   21.8391 H   0  0  0  0  0  0  0  0  0  0  0  0
   53.2662   47.2301   23.6187 H   0  0  0  0  0  0  0  0  0  0  0  0
   54.8465   49.2221   22.8645 H   0  0  0  0  0  0  0  0  0  0  0  0
   53.7588   49.2059   21.4104 H   0  0  0  0  0  0  0  0  0  0  0  0
   54.5937   50.8343   25.7670 H   0  0  0  0  0  0  0  0  0  0  0  0
   55.2530   50.1976   24.2221 H   0  0  0  0  0  0  0  0  0  0  0  0
   54.2354   51.6779   24.2221 H   0  0  0  0  0  0  0  0  0  0  0  0
  1  2  1  0
  2  3  1  0
  3  4  2  0
  4  5  1  0
  5  6  1  0
  6  7  2  0
  7  8  1  0
  8  9  1  0
  9 10  2  0
 10 11  1  0
 11 12  1  0
 12 13  2  0
 13 14  1  0
 14 15  1  0
 15 16  2  0
 16 17  1  0
 17 18  1  0
 18 19  1  0
 19 20  1  0
 20 21  2  0
 20 22  1  0
 22 23  1  0
  1 24  1  0
  1 25  1  0
  1 26  1  0
  2 27  1  0
  2 28  1  0
  3 29  1  0
  4 30  1  0
  5 31  1  0
  5 32  1  0
  6 33  1  0
  7 34  1  0
  8 35  1  0
  8 36  1  0
  9 37  1  0
 10 38  1  0
 11 39  1  0
 11 40  1  0
 12 41  1  0
 13 42  1  0
 14 43  1  0
 14 44  1  0
 15 45  1  0
 16 46  1  0
 17 47  1  0
 17 48  1  0
 18 49  1  0
 18 50  1  0
 19 51  1  0
 19 52  1  0
 23 53  1  0
 23 54  1  0
 23 55  1  0
M  END
>  <meeko>  (1) 
{"is_sidechain": false}

$$$$
