
     RDKit          3D

 50 49  0  0  0  0  0  0  0  0999 V2000
   55.4010   42.4660   20.5380 C   0  0  0  0  0  0  0  0  0  0  0  0
   55.0050   43.8970   20.2020 C   0  0  0  0  0  0  0  0  0  0  0  0
   54.6950   44.0540   18.7140 C   0  0  0  0  0  0  0  0  0  0  0  0
   54.6030   42.7180   17.9680 C   0  0  0  0  0  0  0  0  0  0  0  0
   54.4790   42.8790   16.4510 C   0  0  0  0  0  0  0  0  0  0  0  0
   53.0300   42.8350   15.9530 C   0  0  0  0  0  0  0  0  0  0  0  0
   52.5150   44.1160   15.2890 C   0  0  0  0  0  0  0  0  0  0  0  0
   51.2620   44.6860   15.9570 C   0  0  0  0  0  0  0  0  0  0  0  0
   51.6120   45.8480   16.8890 C   0  0  0  0  0  0  0  0  0  0  0  0
   52.9910   46.4270   16.5620 C   0  0  0  0  0  0  0  0  0  0  0  0
   53.1990   47.7800   17.2450 C   0  0  0  0  0  0  0  0  0  0  0  0
   52.6400   47.8370   18.6690 C   0  0  0  0  0  0  0  0  0  0  0  0
   53.5950   47.3870   19.7820 C   0  0  0  0  0  0  0  0  0  0  0  0
   54.2280   48.5220   20.5840 C   0  0  0  0  0  0  0  0  0  0  0  0
   55.7000   48.3030   20.8340 C   0  0  0  0  0  0  0  0  0  0  0  0
   56.4330   47.6810   20.0760 O   0  0  0  0  0  0  0  0  0  0  0  0
   56.0670   48.8950   22.0060 O   0  0  0  0  0  0  0  0  0  0  0  0
   55.0140   49.0810   22.9580 C   0  0  0  0  0  0  0  0  0  0  0  0
   55.4353   42.3419   21.6304 H   0  0  0  0  0  0  0  0  0  0  0  0
   54.6613   41.7715   20.1132 H   0  0  0  0  0  0  0  0  0  0  0  0
   56.3925   42.2506   20.1132 H   0  0  0  0  0  0  0  0  0  0  0  0
   54.1118   44.1675   20.7843 H   0  0  0  0  0  0  0  0  0  0  0  0
   55.8482   44.5577   20.4519 H   0  0  0  0  0  0  0  0  0  0  0  0
   53.7332   44.5778   18.6114 H   0  0  0  0  0  0  0  0  0  0  0  0
   55.5257   44.6196   18.2667 H   0  0  0  0  0  0  0  0  0  0  0  0
   55.5099   42.1342   18.1842 H   0  0  0  0  0  0  0  0  0  0  0  0
   53.6911   42.2118   18.3175 H   0  0  0  0  0  0  0  0  0  0  0  0
   54.9170   43.8469   16.1657 H   0  0  0  0  0  0  0  0  0  0  0  0
   55.0080   42.0323   15.9892 H   0  0  0  0  0  0  0  0  0  0  0  0
   52.9495   42.0188   15.2199 H   0  0  0  0  0  0  0  0  0  0  0  0
   52.4095   42.6928   16.8501 H   0  0  0  0  0  0  0  0  0  0  0  0
   53.3097   44.8753   15.3333 H   0  0  0  0  0  0  0  0  0  0  0  0
   52.2427   43.8585   14.2548 H   0  0  0  0  0  0  0  0  0  0  0  0
   50.5724   45.0453   15.1789 H   0  0  0  0  0  0  0  0  0  0  0  0
   50.7926   43.8900   16.5537 H   0  0  0  0  0  0  0  0  0  0  0  0
   50.8554   46.6385   16.7760 H   0  0  0  0  0  0  0  0  0  0  0  0
   51.6296   45.4713   17.9223 H   0  0  0  0  0  0  0  0  0  0  0  0
   53.7655   45.7271   16.9089 H   0  0  0  0  0  0  0  0  0  0  0  0
   53.0587   46.5721   15.4737 H   0  0  0  0  0  0  0  0  0  0  0  0
   54.2786   47.9871   17.2861 H   0  0  0  0  0  0  0  0  0  0  0  0
   52.6530   48.5290   16.6526 H   0  0  0  0  0  0  0  0  0  0  0  0
   52.3484   48.8774   18.8753 H   0  0  0  0  0  0  0  0  0  0  0  0
   51.8026   47.1240   18.6889 H   0  0  0  0  0  0  0  0  0  0  0  0
   53.0313   46.7493   20.4788 H   0  0  0  0  0  0  0  0  0  0  0  0
   54.4234   46.8618   19.2841 H   0  0  0  0  0  0  0  0  0  0  0  0
   54.1010   49.4615   20.0261 H   0  0  0  0  0  0  0  0  0  0  0  0
   53.7254   48.5607   21.5617 H   0  0  0  0  0  0  0  0  0  0  0  0
   55.4234   49.0087   23.9764 H   0  0  0  0  0  0  0  0  0  0  0  0
   54.5610   50.0731   22.8145 H   0  0  0  0  0  0  0  0  0  0  0  0
   54.2485   48.3042   22.8145 H   0  0  0  0  0  0  0  0  0  0  0  0
  1  2  1  0
  2  3  1  0
  3  4  1  0
  4  5  1  0
  5  6  1  0
  6  7  1  0
  7  8  1  0
  8  9  1  0
  9 10  1  0
 10 11  1  0
 11 12  1  0
 12 13  1  0
 13 14  1  0
 14 15  1  0
 15 16  2  0
 15 17  1  0
 17 18  1  0
  1 19  1  0
  1 20  1  0
  1 21  1  0
  2 22  1  0
  2 23  1  0
  3 24  1  0
  3 25  1  0
  4 26  1  0
  4 27  1  0
  5 28  1  0
  5 29  1  0
  6 30  1  0
  6 31  1  0
  7 32  1  0
  7 33  1  0
  8 34  1  0
  8 35  1  0
  9 36  1  0
  9 37  1  0
 10 38  1  0
 10 39  1  0
 11 40  1  0
 11 41  1  0
 12 42  1  0
 12 43  1  0
 13 44  1  0
 13 45  1  0
 14 46  1  0
 14 47  1  0
 18 48  1  0
 18 49  1  0
 18 50  1  0
M  END
>  <meeko>  (1) 
{"is_sidechain": false}

$$$$
