
     RDKit          3D

 45 44  0  0  0  0  0  0  0  0999 V2000
   53.4300   40.0780   21.6150 C   0  0  0  0  0  0  0  0  0  0  0  0
   54.2300   40.5820   20.4240 C   0  0  0  0  0  0  0  0  0  0  0  0
   55.1990   41.6560   20.8260 C   0  0  0  0  0  0  0  0  0  0  0  0
   55.3130   42.8320   20.1860 C   0  0  0  0  0  0  0  0  0  0  0  0
   54.5350   43.3090   18.9880 C   0  0  0  0  0  0  0  0  0  0  0  0
   54.8320   42.5990   17.6980 C   0  0  0  0  0  0  0  0  0  0  0  0
   54.5220   43.0960   16.4890 C   0  0  0  0  0  0  0  0  0  0  0  0
   53.8470   44.4040   16.1770 C   0  0  0  0  0  0  0  0  0  0  0  0
   52.3640   44.3340   15.9520 C   0  0  0  0  0  0  0  0  0  0  0  0
   51.5040   45.2780   16.3650 C   0  0  0  0  0  0  0  0  0  0  0  0
   51.9150   46.5180   17.1020 C   0  0  0  0  0  0  0  0  0  0  0  0
   51.8470   46.3230   18.5880 C   0  0  0  0  0  0  0  0  0  0  0  0
   52.7980   46.7420   19.4350 C   0  0  0  0  0  0  0  0  0  0  0  0
   54.0460   47.4580   19.0020 C   0  0  0  0  0  0  0  0  0  0  0  0
   55.3030   46.8860   19.6570 C   0  0  0  0  0  0  0  0  0  0  0  0
   55.9910   47.8560   20.5930 C   0  0  0  0  0  0  0  0  0  0  0  0
   56.2090   49.0360   20.3550 O   0  0  0  0  0  0  0  0  0  0  0  0
   56.3390   47.1920   21.7360 O   0  0  0  0  0  0  0  0  0  0  0  0
   55.2480   46.7350   22.5420 C   0  0  0  0  0  0  0  0  0  0  0  0
   53.9243   40.3894   22.5470 H   0  0  0  0  0  0  0  0  0  0  0  0
   52.4147   40.4999   21.5798 H   0  0  0  0  0  0  0  0  0  0  0  0
   53.3722   38.9801   21.5798 H   0  0  0  0  0  0  0  0  0  0  0  0
   54.7892   39.7413   19.9877 H   0  0  0  0  0  0  0  0  0  0  0  0
   53.5277   41.0075   19.6921 H   0  0  0  0  0  0  0  0  0  0  0  0
   55.8514   41.4700   21.6919 H   0  0  0  0  0  0  0  0  0  0  0  0
   56.0643   43.5296   20.5847 H   0  0  0  0  0  0  0  0  0  0  0  0
   53.4645   43.1809   19.2064 H   0  0  0  0  0  0  0  0  0  0  0  0
   54.8341   44.3559   18.8317 H   0  0  0  0  0  0  0  0  0  0  0  0
   55.3301   41.6194   17.7459 H   0  0  0  0  0  0  0  0  0  0  0  0
   54.7940   42.4726   15.6245 H   0  0  0  0  0  0  0  0  0  0  0  0
   54.0291   45.0877   17.0193 H   0  0  0  0  0  0  0  0  0  0  0  0
   54.2790   44.7447   15.2245 H   0  0  0  0  0  0  0  0  0  0  0  0
   51.9601   43.4606   15.4191 H   0  0  0  0  0  0  0  0  0  0  0  0
   50.4348   45.1338   16.1504 H   0  0  0  0  0  0  0  0  0  0  0  0
   52.9474   46.7744   16.8221 H   0  0  0  0  0  0  0  0  0  0  0  0
   51.2223   47.3275   16.8283 H   0  0  0  0  0  0  0  0  0  0  0  0
   50.9690   45.8082   19.0053 H   0  0  0  0  0  0  0  0  0  0  0  0
   52.6565   46.5506   20.5089 H   0  0  0  0  0  0  0  0  0  0  0  0
   54.1443   47.3677   17.9101 H   0  0  0  0  0  0  0  0  0  0  0  0
   53.9546   48.5092   19.3129 H   0  0  0  0  0  0  0  0  0  0  0  0
   55.0203   45.9905   20.2299 H   0  0  0  0  0  0  0  0  0  0  0  0
   56.0134   46.6573   18.8489 H   0  0  0  0  0  0  0  0  0  0  0  0
   55.5072   46.8436   23.6055 H   0  0  0  0  0  0  0  0  0  0  0  0
   54.3522   47.3335   22.3200 H   0  0  0  0  0  0  0  0  0  0  0  0
   55.0462   45.6767   22.3200 H   0  0  0  0  0  0  0  0  0  0  0  0
  1  2  1  0
  2  3  1  0
  3  4  2  0
  4  5  1  0
  5  6  1  0
  6  7  2  0
  7  8  1  0
  8  9  1  0
  9 10  2  0
 10 11  1  0
 11 12  1  0
 12 13  2  0
 13 14  1  0
 14 15  1  0
 15 16  1  0
 16 17  2  0
 16 18  1  0
 18 19  1  0
  1 20  1  0
  1 21  1  0
  1 22  1  0
  2 23  1  0
  2 24  1  0
  3 25  1  0
  4 26  1  0
  5 27  1  0
  5 28  1  0
  6 29  1  0
  7 30  1  0
  8 31  1  0
  8 32  1  0
  9 33  1  0
 10 34  1  0
 11 35  1  0
 11 36  1  0
 12 37  1  0
 13 38  1  0
 14 39  1  0
 14 40  1  0
 15 41  1  0
 15 42  1  0
 19 43  1  0
 19 44  1  0
 19 45  1  0
M  END
>  <meeko>  (1) 
{"is_sidechain": false}

$$$$
