
     RDKit          3D

 56 55  0  0  0  0  0  0  0  0999 V2000
   53.3450   40.9600   22.1660 C   0  0  0  0  0  0  0  0  0  0  0  0
   53.6490   40.3510   20.8070 C   0  0  0  0  0  0  0  0  0  0  0  0
   55.1000   40.5440   20.3590 C   0  0  0  0  0  0  0  0  0  0  0  0
   55.3030   41.4400   19.1320 C   0  0  0  0  0  0  0  0  0  0  0  0
   54.9810   42.9120   19.3980 C   0  0  0  0  0  0  0  0  0  0  0  0
   54.3950   43.6330   18.1790 C   0  0  0  0  0  0  0  0  0  0  0  0
   54.4730   42.8650   16.8550 C   0  0  0  0  0  0  0  0  0  0  0  0
   53.2210   42.9350   15.9740 C   0  0  0  0  0  0  0  0  0  0  0  0
   52.7880   44.3400   15.5440 C   0  0  0  0  0  0  0  0  0  0  0  0
   51.4430   44.7690   16.1340 C   0  0  0  0  0  0  0  0  0  0  0  0
   51.6020   45.9990   17.0320 C   0  0  0  0  0  0  0  0  0  0  0  0
   52.9300   46.7350   16.8280 C   0  0  0  0  0  0  0  0  0  0  0  0
   52.9470   48.1380   17.4390 C   0  0  0  0  0  0  0  0  0  0  0  0
   52.2370   48.1580   18.7940 C   0  0  0  0  0  0  0  0  0  0  0  0
   53.1960   48.2480   19.9850 C   0  0  0  0  0  0  0  0  0  0  0  0
   54.0020   46.9810   20.2980 C   0  0  0  0  0  0  0  0  0  0  0  0
   55.4800   47.0410   19.9140 C   0  0  0  0  0  0  0  0  0  0  0  0
   56.2540   48.0550   20.7140 C   0  0  0  0  0  0  0  0  0  0  0  0
   56.5630   49.1850   20.3800 O   0  0  0  0  0  0  0  0  0  0  0  0
   56.6430   47.5640   21.9080 O   0  0  0  0  0  0  0  0  0  0  0  0
   53.6858   40.2772   22.9583 H   0  0  0  0  0  0  0  0  0  0  0  0
   53.8682   41.9229   22.2616 H   0  0  0  0  0  0  0  0  0  0  0  0
   52.2610   41.1206   22.2616 H   0  0  0  0  0  0  0  0  0  0  0  0
   53.4406   39.2720   20.8551 H   0  0  0  0  0  0  0  0  0  0  0  0
   53.0135   40.8678   20.0728 H   0  0  0  0  0  0  0  0  0  0  0  0
   55.6564   40.9880   21.1976 H   0  0  0  0  0  0  0  0  0  0  0  0
   55.4582   39.5465   20.0645 H   0  0  0  0  0  0  0  0  0  0  0  0
   56.3534   41.3642   18.8142 H   0  0  0  0  0  0  0  0  0  0  0  0
   54.6085   41.0898   18.3542 H   0  0  0  0  0  0  0  0  0  0  0  0
   54.2523   42.9672   20.2202 H   0  0  0  0  0  0  0  0  0  0  0  0
   55.9275   43.4128   19.6495 H   0  0  0  0  0  0  0  0  0  0  0  0
   53.3353   43.8426   18.3868 H   0  0  0  0  0  0  0  0  0  0  0  0
   55.0078   44.5358   18.0399 H   0  0  0  0  0  0  0  0  0  0  0  0
   55.3164   43.2712   16.2774 H   0  0  0  0  0  0  0  0  0  0  0  0
   54.5899   41.8059   17.1280 H   0  0  0  0  0  0  0  0  0  0  0  0
   53.4150   42.3480   15.0641 H   0  0  0  0  0  0  0  0  0  0  0  0
   52.3985   42.5439   16.5909 H   0  0  0  0  0  0  0  0  0  0  0  0
   53.5562   45.0566   15.8701 H   0  0  0  0  0  0  0  0  0  0  0  0
   52.6721   44.3234   14.4502 H   0  0  0  0  0  0  0  0  0  0  0  0
   50.7513   45.0103   15.3134 H   0  0  0  0  0  0  0  0  0  0  0  0
   51.0482   43.9415   16.7417 H   0  0  0  0  0  0  0  0  0  0  0  0
   50.7799   46.6971   16.8156 H   0  0  0  0  0  0  0  0  0  0  0  0
   51.5842   45.6448   18.0732 H   0  0  0  0  0  0  0  0  0  0  0  0
   53.7320   46.1426   17.2926 H   0  0  0  0  0  0  0  0  0  0  0  0
   53.0739   46.8511   15.7436 H   0  0  0  0  0  0  0  0  0  0  0  0
   53.9906   48.4576   17.5757 H   0  0  0  0  0  0  0  0  0  0  0  0
   52.4189   48.8217   16.7581 H   0  0  0  0  0  0  0  0  0  0  0  0
   51.5645   49.0281   18.8219 H   0  0  0  0  0  0  0  0  0  0  0  0
   51.6926   47.2068   18.8881 H   0  0  0  0  0  0  0  0  0  0  0  0
   53.9104   49.0592   19.7810 H   0  0  0  0  0  0  0  0  0  0  0  0
   52.5593   48.4189   20.8655 H   0  0  0  0  0  0  0  0  0  0  0  0
   53.9385   46.7955   21.3804 H   0  0  0  0  0  0  0  0  0  0  0  0
   53.5598   46.1787   19.6891 H   0  0  0  0  0  0  0  0  0  0  0  0
   55.9259   46.0492   20.0796 H   0  0  0  0  0  0  0  0  0  0  0  0
   55.5340   47.3438   18.8579 H   0  0  0  0  0  0  0  0  0  0  0  0
   55.9240   46.9450   22.1540 H   0  0  0  0  0  0  0  0  0  0  0  0
  1  2  1  0
  2  3  1  0
  3  4  1  0
  4  5  1  0
  5  6  1  0
  6  7  1  0
  7  8  1  0
  8  9  1  0
  9 10  1  0
 10 11  1  0
 11 12  1  0
 12 13  1  0
 13 14  1  0
 14 15  1  0
 15 16  1  0
 16 17  1  0
 17 18  1  0
 18 19  2  0
 18 20  1  0
  1 21  1  0
  1 22  1  0
  1 23  1  0
  2 24  1  0
  2 25  1  0
  3 26  1  0
  3 27  1  0
  4 28  1  0
  4 29  1  0
  5 30  1  0
  5 31  1  0
  6 32  1  0
  6 33  1  0
  7 34  1  0
  7 35  1  0
  8 36  1  0
  8 37  1  0
  9 38  1  0
  9 39  1  0
 10 40  1  0
 10 41  1  0
 11 42  1  0
 11 43  1  0
 12 44  1  0
 12 45  1  0
 13 46  1  0
 13 47  1  0
 14 48  1  0
 14 49  1  0
 15 50  1  0
 15 51  1  0
 16 52  1  0
 16 53  1  0
 17 54  1  0
 17 55  1  0
 20 56  1  0
M  END
>  <meeko>  (1) 
{"is_sidechain": false}

$$$$
