
     RDKit          3D

 24 24  0  0  0  0  0  0  0  0999 V2000
   -2.2850    1.1621    0.4051 C   0  0  0  0  0  0  0  0  0  0  0  0
   -1.0237    0.2951    0.4608 C   0  0  2  0  0  0  0  0  0  0  0  0
    0.2459    1.1151    0.1806 C   0  0  2  0  0  0  0  0  0  0  0  0
    1.4537    0.1723    0.1106 C   0  0  1  0  0  0  0  0  0  0  0  0
    1.1997   -0.9576   -0.8826 C   0  0  2  0  0  0  0  0  0  0  0  0
   -0.1111   -1.6732   -0.5144 C   0  0  1  0  0  0  0  0  0  0  0  0
   -1.1883   -0.7396   -0.5257 O   0  0  0  0  0  0  0  0  0  0  0  0
   -0.3800   -2.6978   -1.4633 O   0  0  0  0  0  0  0  0  0  0  0  0
    2.2961   -1.8812   -0.8810 O   0  0  0  0  0  0  0  0  0  0  0  0
    2.6258    0.8978   -0.2931 O   0  0  0  0  0  0  0  0  0  0  0  0
    0.5119    2.0830    1.2000 O   0  0  0  0  0  0  0  0  0  0  0  0
   -3.4328    0.3570    0.6695 O   0  0  0  0  0  0  0  0  0  0  0  0
   -2.4174    1.6033   -0.5883 H   0  0  0  0  0  0  0  0  0  0  0  0
   -2.2575    1.9642    1.1477 H   0  0  0  0  0  0  0  0  0  0  0  0
   -0.9767   -0.1745    1.4524 H   0  0  0  0  0  0  0  0  0  0  0  0
    0.1627    1.6532   -0.7723 H   0  0  0  0  0  0  0  0  0  0  0  0
    1.6855   -0.2361    1.1024 H   0  0  0  0  0  0  0  0  0  0  0  0
    1.1371   -0.5560   -1.9018 H   0  0  0  0  0  0  0  0  0  0  0  0
   -0.0394   -2.1587    0.4660 H   0  0  0  0  0  0  0  0  0  0  0  0
    0.4900   -2.9631   -1.8166 H   0  0  0  0  0  0  0  0  0  0  0  0
    3.0983   -1.3214   -0.9296 H   0  0  0  0  0  0  0  0  0  0  0  0
    2.6703    1.6669    0.3103 H   0  0  0  0  0  0  0  0  0  0  0  0
   -0.1211    2.8166    1.0983 H   0  0  0  0  0  0  0  0  0  0  0  0
   -3.3440   -0.4274    0.0908 H   0  0  0  0  0  0  0  0  0  0  0  0
  1  2  1  0
  2  3  1  0
  3  4  1  0
  4  5  1  0
  5  6  1  0
  6  7  1  0
  6  8  1  0
  5  9  1  0
  4 10  1  0
  3 11  1  0
  1 12  1  0
  7  2  1  0
  1 13  1  0
  1 14  1  0
  2 15  1  1
  3 16  1  6
  4 17  1  1
  5 18  1  6
  6 19  1  1
  8 20  1  0
  9 21  1  0
 10 22  1  0
 11 23  1  0
 12 24  1  0
M  END
$$$$
