methyl_stearate
     RDKit          3D

 59 58  0  0  0  0  0  0  0  0999 V2000
   -8.2994    1.9867   -0.4039 C   0  0  0  0  0  0  0  0  0  0  0  0
   -6.9498    1.3499   -0.6991 C   0  0  0  0  0  0  0  0  0  0  0  0
   -5.8564    1.9164    0.2074 C   0  0  0  0  0  0  0  0  0  0  0  0
   -4.4569    1.3917   -0.1257 C   0  0  0  0  0  0  0  0  0  0  0  0
   -4.2909   -0.1071    0.1356 C   0  0  0  0  0  0  0  0  0  0  0  0
   -2.8460   -0.5540   -0.1037 C   0  0  0  0  0  0  0  0  0  0  0  0
   -2.6807   -2.0547    0.1507 C   0  0  0  0  0  0  0  0  0  0  0  0
   -1.2556   -2.5571   -0.1056 C   0  0  0  0  0  0  0  0  0  0  0  0
   -0.3784   -2.6748    1.1474 C   0  0  0  0  0  0  0  0  0  0  0  0
   -0.0928   -1.3809    1.9131 C   0  0  0  0  0  0  0  0  0  0  0  0
    0.6639   -0.2965    1.1363 C   0  0  0  0  0  0  0  0  0  0  0  0
    2.1828   -0.2977    1.3473 C   0  0  0  0  0  0  0  0  0  0  0  0
    2.9481   -1.4969    0.7852 C   0  0  0  0  0  0  0  0  0  0  0  0
    2.8131   -1.7202   -0.7218 C   0  0  0  0  0  0  0  0  0  0  0  0
    3.2504   -0.5645   -1.6286 C   0  0  0  0  0  0  0  0  0  0  0  0
    4.7563   -0.2794   -1.6286 C   0  0  0  0  0  0  0  0  0  0  0  0
    5.1754    0.8099   -0.6417 C   0  0  0  0  0  0  0  0  0  0  0  0
    6.6477    1.1344   -0.7550 C   0  0  0  0  0  0  0  0  0  0  0  0
    7.4512    0.5562   -1.4723 O   0  0  0  0  0  0  0  0  0  0  0  0
    6.9466    2.1722    0.0782 O   0  0  0  0  0  0  0  0  0  0  0  0
    8.3212    2.5584    0.0530 C   0  0  0  0  0  0  0  0  0  0  0  0
   -9.0684    1.5660   -1.0594 H   0  0  0  0  0  0  0  0  0  0  0  0
   -8.6002    1.8052    0.6329 H   0  0  0  0  0  0  0  0  0  0  0  0
   -8.2678    3.0684   -0.5688 H   0  0  0  0  0  0  0  0  0  0  0  0
   -6.6918    1.5259   -1.7497 H   0  0  0  0  0  0  0  0  0  0  0  0
   -7.0368    0.2670   -0.5608 H   0  0  0  0  0  0  0  0  0  0  0  0
   -6.0923    1.6954    1.2556 H   0  0  0  0  0  0  0  0  0  0  0  0
   -5.8428    3.0093    0.1113 H   0  0  0  0  0  0  0  0  0  0  0  0
   -4.2205    1.6136   -1.1735 H   0  0  0  0  0  0  0  0  0  0  0  0
   -3.7316    1.9437    0.4849 H   0  0  0  0  0  0  0  0  0  0  0  0
   -4.5780   -0.3341    1.1694 H   0  0  0  0  0  0  0  0  0  0  0  0
   -4.9560   -0.6789   -0.5209 H   0  0  0  0  0  0  0  0  0  0  0  0
   -2.1803    0.0207    0.5463 H   0  0  0  0  0  0  0  0  0  0  0  0
   -2.5605   -0.3253   -1.1378 H   0  0  0  0  0  0  0  0  0  0  0  0
   -3.0025   -2.3100    1.1672 H   0  0  0  0  0  0  0  0  0  0  0  0
   -3.3557   -2.5873   -0.5319 H   0  0  0  0  0  0  0  0  0  0  0  0
   -0.7622   -1.9553   -0.8759 H   0  0  0  0  0  0  0  0  0  0  0  0
   -1.3341   -3.5687   -0.5259 H   0  0  0  0  0  0  0  0  0  0  0  0
    0.5647   -3.1504    0.8613 H   0  0  0  0  0  0  0  0  0  0  0  0
   -0.8626   -3.3756    1.8401 H   0  0  0  0  0  0  0  0  0  0  0  0
    0.4588   -1.6290    2.8285 H   0  0  0  0  0  0  0  0  0  0  0  0
   -1.0478   -0.9658    2.2557 H   0  0  0  0  0  0  0  0  0  0  0  0
    0.4220   -0.3122    0.0702 H   0  0  0  0  0  0  0  0  0  0  0  0
    0.3029    0.6734    1.5046 H   0  0  0  0  0  0  0  0  0  0  0  0
    2.3898   -0.2312    2.4231 H   0  0  0  0  0  0  0  0  0  0  0  0
    2.5866    0.6243    0.9136 H   0  0  0  0  0  0  0  0  0  0  0  0
    4.0086   -1.3888    1.0386 H   0  0  0  0  0  0  0  0  0  0  0  0
    2.6257   -2.4055    1.3060 H   0  0  0  0  0  0  0  0  0  0  0  0
    1.7703   -1.9596   -0.9572 H   0  0  0  0  0  0  0  0  0  0  0  0
    3.3878   -2.6160   -0.9896 H   0  0  0  0  0  0  0  0  0  0  0  0
    2.6775    0.3438   -1.4126 H   0  0  0  0  0  0  0  0  0  0  0  0
    2.9754   -0.8528   -2.6522 H   0  0  0  0  0  0  0  0  0  0  0  0
    5.0356    0.0538   -2.6372 H   0  0  0  0  0  0  0  0  0  0  0  0
    5.3237   -1.2003   -1.4473 H   0  0  0  0  0  0  0  0  0  0  0  0
    4.9862    0.4964    0.3875 H   0  0  0  0  0  0  0  0  0  0  0  0
    4.6101    1.7262   -0.8458 H   0  0  0  0  0  0  0  0  0  0  0  0
    8.6067    2.8953   -0.9485 H   0  0  0  0  0  0  0  0  0  0  0  0
    8.9580    1.7308    0.3810 H   0  0  0  0  0  0  0  0  0  0  0  0
    8.4517    3.3919    0.7487 H   0  0  0  0  0  0  0  0  0  0  0  0
  1  2  1  0
  2  3  1  0
  3  4  1  0
  4  5  1  0
  5  6  1  0
  6  7  1  0
  7  8  1  0
  8  9  1  0
  9 10  1  0
 10 11  1  0
 11 12  1  0
 12 13  1  0
 13 14  1  0
 14 15  1  0
 15 16  1  0
 16 17  1  0
 17 18  1  0
 18 19  2  0
 18 20  1  0
 20 21  1  0
  1 22  1  0
  1 23  1  0
  1 24  1  0
  2 25  1  0
  2 26  1  0
  3 27  1  0
  3 28  1  0
  4 29  1  0
  4 30  1  0
  5 31  1  0
  5 32  1  0
  6 33  1  0
  6 34  1  0
  7 35  1  0
  7 36  1  0
  8 37  1  0
  8 38  1  0
  9 39  1  0
  9 40  1  0
 10 41  1  0
 10 42  1  0
 11 43  1  0
 11 44  1  0
 12 45  1  0
 12 46  1  0
 13 47  1  0
 13 48  1  0
 14 49  1  0
 14 50  1  0
 15 51  1  0
 15 52  1  0
 16 53  1  0
 16 54  1  0
 17 55  1  0
 17 56  1  0
 21 57  1  0
 21 58  1  0
 21 59  1  0
M  END
$$$$
