methyl_heneicosanoate
     RDKit          3D

 68 67  0  0  0  0  0  0  0  0999 V2000
   -6.0543    3.4620    1.3018 C   0  0  0  0  0  0  0  0  0  0  0  0
   -7.1980    2.4754    1.4591 C   0  0  0  0  0  0  0  0  0  0  0  0
   -7.4142    1.5560    0.2534 C   0  0  0  0  0  0  0  0  0  0  0  0
   -6.2464    0.6083   -0.0462 C   0  0  0  0  0  0  0  0  0  0  0  0
   -5.3007    1.1484   -1.1239 C   0  0  0  0  0  0  0  0  0  0  0  0
   -4.1825    0.1688   -1.4947 C   0  0  0  0  0  0  0  0  0  0  0  0
   -3.1772   -0.0598   -0.3624 C   0  0  0  0  0  0  0  0  0  0  0  0
   -2.0169   -0.9444   -0.8266 C   0  0  0  0  0  0  0  0  0  0  0  0
   -1.0417   -1.3138    0.2963 C   0  0  0  0  0  0  0  0  0  0  0  0
   -0.2630   -0.1141    0.8417 C   0  0  0  0  0  0  0  0  0  0  0  0
    0.7235   -0.4837    1.9547 C   0  0  0  0  0  0  0  0  0  0  0  0
    1.8787   -1.3656    1.4744 C   0  0  0  0  0  0  0  0  0  0  0  0
    2.9233   -1.5600    2.5734 C   0  0  0  0  0  0  0  0  0  0  0  0
    4.0395   -2.5462    2.2089 C   0  0  0  0  0  0  0  0  0  0  0  0
    4.8884   -2.1263    1.0023 C   0  0  0  0  0  0  0  0  0  0  0  0
    4.4750   -2.8407   -0.2894 C   0  0  0  0  0  0  0  0  0  0  0  0
    5.3407   -2.4621   -1.4971 C   0  0  0  0  0  0  0  0  0  0  0  0
    5.2686   -0.9927   -1.9256 C   0  0  0  0  0  0  0  0  0  0  0  0
    3.8824   -0.5750   -2.4271 C   0  0  0  0  0  0  0  0  0  0  0  0
    3.8344    0.8939   -2.8397 C   0  0  0  0  0  0  0  0  0  0  0  0
    3.9441    1.8200   -1.6538 C   0  0  0  0  0  0  0  0  0  0  0  0
    4.9211    2.5165   -1.4152 O   0  0  0  0  0  0  0  0  0  0  0  0
    2.8135    1.7631   -0.8973 O   0  0  0  0  0  0  0  0  0  0  0  0
    2.8497    2.5940    0.2632 C   0  0  0  0  0  0  0  0  0  0  0  0
   -5.0865    2.9523    1.3042 H   0  0  0  0  0  0  0  0  0  0  0  0
   -6.0523    4.1699    2.1371 H   0  0  0  0  0  0  0  0  0  0  0  0
   -6.1500    4.0343    0.3739 H   0  0  0  0  0  0  0  0  0  0  0  0
   -8.1228    3.0403    1.6286 H   0  0  0  0  0  0  0  0  0  0  0  0
   -7.0323    1.8716    2.3592 H   0  0  0  0  0  0  0  0  0  0  0  0
   -7.6708    2.1502   -0.6316 H   0  0  0  0  0  0  0  0  0  0  0  0
   -8.2961    0.9412    0.4756 H   0  0  0  0  0  0  0  0  0  0  0  0
   -5.7042    0.3794    0.8773 H   0  0  0  0  0  0  0  0  0  0  0  0
   -6.6622   -0.3404   -0.4091 H   0  0  0  0  0  0  0  0  0  0  0  0
   -4.8579    2.0993   -0.8125 H   0  0  0  0  0  0  0  0  0  0  0  0
   -5.8819    1.3576   -2.0309 H   0  0  0  0  0  0  0  0  0  0  0  0
   -3.6521    0.5711   -2.3668 H   0  0  0  0  0  0  0  0  0  0  0  0
   -4.6184   -0.7887   -1.8046 H   0  0  0  0  0  0  0  0  0  0  0  0
   -2.7978    0.9093   -0.0208 H   0  0  0  0  0  0  0  0  0  0  0  0
   -3.6727   -0.5373    0.4897 H   0  0  0  0  0  0  0  0  0  0  0  0
   -2.4230   -1.8743   -1.2442 H   0  0  0  0  0  0  0  0  0  0  0  0
   -1.4715   -0.4463   -1.6375 H   0  0  0  0  0  0  0  0  0  0  0  0
   -0.3410   -2.0536   -0.1066 H   0  0  0  0  0  0  0  0  0  0  0  0
   -1.5873   -1.8040    1.1115 H   0  0  0  0  0  0  0  0  0  0  0  0
    0.2743    0.3805    0.0238 H   0  0  0  0  0  0  0  0  0  0  0  0
   -0.9629    0.6222    1.2522 H   0  0  0  0  0  0  0  0  0  0  0  0
    0.1885   -0.9846    2.7707 H   0  0  0  0  0  0  0  0  0  0  0  0
    1.1322    0.4463    2.3693 H   0  0  0  0  0  0  0  0  0  0  0  0
    2.3444   -0.8940    0.6035 H   0  0  0  0  0  0  0  0  0  0  0  0
    1.4991   -2.3441    1.1619 H   0  0  0  0  0  0  0  0  0  0  0  0
    3.3675   -0.5902    2.8302 H   0  0  0  0  0  0  0  0  0  0  0  0
    2.4282   -1.9269    3.4812 H   0  0  0  0  0  0  0  0  0  0  0  0
    4.7024   -2.6159    3.0811 H   0  0  0  0  0  0  0  0  0  0  0  0
    3.6202   -3.5485    2.0621 H   0  0  0  0  0  0  0  0  0  0  0  0
    5.9340   -2.3870    1.2103 H   0  0  0  0  0  0  0  0  0  0  0  0
    4.8554   -1.0385    0.8831 H   0  0  0  0  0  0  0  0  0  0  0  0
    4.5705   -3.9233   -0.1355 H   0  0  0  0  0  0  0  0  0  0  0  0
    3.4199   -2.6613   -0.5134 H   0  0  0  0  0  0  0  0  0  0  0  0
    5.0510   -3.0943   -2.3457 H   0  0  0  0  0  0  0  0  0  0  0  0
    6.3863   -2.7078   -1.2732 H   0  0  0  0  0  0  0  0  0  0  0  0
    5.9946   -0.8380   -2.7340 H   0  0  0  0  0  0  0  0  0  0  0  0
    5.5898   -0.3476   -1.1015 H   0  0  0  0  0  0  0  0  0  0  0  0
    3.1260   -0.7618   -1.6591 H   0  0  0  0  0  0  0  0  0  0  0  0
    3.6168   -1.1924   -3.2937 H   0  0  0  0  0  0  0  0  0  0  0  0
    4.6411    1.1288   -3.5432 H   0  0  0  0  0  0  0  0  0  0  0  0
    2.8937    1.1164   -3.3568 H   0  0  0  0  0  0  0  0  0  0  0  0
    1.8850    2.5098    0.7708 H   0  0  0  0  0  0  0  0  0  0  0  0
    3.0022    3.6415   -0.0154 H   0  0  0  0  0  0  0  0  0  0  0  0
    3.6329    2.2552    0.9485 H   0  0  0  0  0  0  0  0  0  0  0  0
  1  2  1  0
  2  3  1  0
  3  4  1  0
  4  5  1  0
  5  6  1  0
  6  7  1  0
  7  8  1  0
  8  9  1  0
  9 10  1  0
 10 11  1  0
 11 12  1  0
 12 13  1  0
 13 14  1  0
 14 15  1  0
 15 16  1  0
 16 17  1  0
 17 18  1  0
 18 19  1  0
 19 20  1  0
 20 21  1  0
 21 22  2  0
 21 23  1  0
 23 24  1  0
  1 25  1  0
  1 26  1  0
  1 27  1  0
  2 28  1  0
  2 29  1  0
  3 30  1  0
  3 31  1  0
  4 32  1  0
  4 33  1  0
  5 34  1  0
  5 35  1  0
  6 36  1  0
  6 37  1  0
  7 38  1  0
  7 39  1  0
  8 40  1  0
  8 41  1  0
  9 42  1  0
  9 43  1  0
 10 44  1  0
 10 45  1  0
 11 46  1  0
 11 47  1  0
 12 48  1  0
 12 49  1  0
 13 50  1  0
 13 51  1  0
 14 52  1  0
 14 53  1  0
 15 54  1  0
 15 55  1  0
 16 56  1  0
 16 57  1  0
 17 58  1  0
 17 59  1  0
 18 60  1  0
 18 61  1  0
 19 62  1  0
 19 63  1  0
 20 64  1  0
 20 65  1  0
 24 66  1  0
 24 67  1  0
 24 68  1  0
M  END
$$$$
