methyl_heptadecanoate
     RDKit          3D

 56 55  0  0  0  0  0  0  0  0999 V2000
    8.4854   -0.6536   -1.6375 C   0  0  0  0  0  0  0  0  0  0  0  0
    7.4451    0.3228   -2.1643 C   0  0  0  0  0  0  0  0  0  0  0  0
    6.0786    0.1885   -1.4868 C   0  0  0  0  0  0  0  0  0  0  0  0
    6.0942    0.5891   -0.0092 C   0  0  0  0  0  0  0  0  0  0  0  0
    4.7279    0.4482    0.6720 C   0  0  0  0  0  0  0  0  0  0  0  0
    3.6765    1.4208    0.1310 C   0  0  0  0  0  0  0  0  0  0  0  0
    2.3894    1.4441    0.9620 C   0  0  0  0  0  0  0  0  0  0  0  0
    1.6213    0.1208    0.9286 C   0  0  0  0  0  0  0  0  0  0  0  0
    0.2915    0.2328    1.6793 C   0  0  0  0  0  0  0  0  0  0  0  0
   -0.4718   -1.0946    1.6550 C   0  0  0  0  0  0  0  0  0  0  0  0
   -1.8118   -1.0303    2.3961 C   0  0  0  0  0  0  0  0  0  0  0  0
   -3.0293   -0.7880    1.4958 C   0  0  0  0  0  0  0  0  0  0  0  0
   -3.0272    0.5703    0.7942 C   0  0  0  0  0  0  0  0  0  0  0  0
   -4.3596    0.9010    0.1124 C   0  0  0  0  0  0  0  0  0  0  0  0
   -4.6928   -0.0372   -1.0528 C   0  0  0  0  0  0  0  0  0  0  0  0
   -5.9585    0.3883   -1.7983 C   0  0  0  0  0  0  0  0  0  0  0  0
   -7.2241    0.1392   -1.0093 C   0  0  0  0  0  0  0  0  0  0  0  0
   -7.3173   -0.5764   -0.0224 O   0  0  0  0  0  0  0  0  0  0  0  0
   -8.2586    0.8143   -1.5870 O   0  0  0  0  0  0  0  0  0  0  0  0
   -9.5107    0.6337   -0.9243 C   0  0  0  0  0  0  0  0  0  0  0  0
    8.1246   -1.6850   -1.7013 H   0  0  0  0  0  0  0  0  0  0  0  0
    9.4033   -0.5789   -2.2294 H   0  0  0  0  0  0  0  0  0  0  0  0
    8.7461   -0.4410   -0.5968 H   0  0  0  0  0  0  0  0  0  0  0  0
    7.8173    1.3481   -2.0548 H   0  0  0  0  0  0  0  0  0  0  0  0
    7.3171    0.1455   -3.2389 H   0  0  0  0  0  0  0  0  0  0  0  0
    5.3743    0.8266   -2.0322 H   0  0  0  0  0  0  0  0  0  0  0  0
    5.7176   -0.8421   -1.5882 H   0  0  0  0  0  0  0  0  0  0  0  0
    6.8022   -0.0457    0.5354 H   0  0  0  0  0  0  0  0  0  0  0  0
    6.4510    1.6211    0.0920 H   0  0  0  0  0  0  0  0  0  0  0  0
    4.3789   -0.5850    0.5638 H   0  0  0  0  0  0  0  0  0  0  0  0
    4.8627    0.6281    1.7457 H   0  0  0  0  0  0  0  0  0  0  0  0
    3.4271    1.1705   -0.9062 H   0  0  0  0  0  0  0  0  0  0  0  0
    4.0955    2.4346    0.1222 H   0  0  0  0  0  0  0  0  0  0  0  0
    1.7457    2.2423    0.5717 H   0  0  0  0  0  0  0  0  0  0  0  0
    2.6260    1.7092    1.9996 H   0  0  0  0  0  0  0  0  0  0  0  0
    2.2233   -0.6742    1.3826 H   0  0  0  0  0  0  0  0  0  0  0  0
    1.4311   -0.1676   -0.1122 H   0  0  0  0  0  0  0  0  0  0  0  0
   -0.3097    1.0300    1.2320 H   0  0  0  0  0  0  0  0  0  0  0  0
    0.4840    0.5231    2.7196 H   0  0  0  0  0  0  0  0  0  0  0  0
    0.1536   -1.8509    2.1469 H   0  0  0  0  0  0  0  0  0  0  0  0
   -0.6184   -1.4351    0.6233 H   0  0  0  0  0  0  0  0  0  0  0  0
   -1.7796   -0.2816    3.1965 H   0  0  0  0  0  0  0  0  0  0  0  0
   -1.9687   -1.9987    2.8889 H   0  0  0  0  0  0  0  0  0  0  0  0
   -3.0863   -1.5924    0.7533 H   0  0  0  0  0  0  0  0  0  0  0  0
   -3.9300   -0.8697    2.1170 H   0  0  0  0  0  0  0  0  0  0  0  0
   -2.2275    0.6042    0.0461 H   0  0  0  0  0  0  0  0  0  0  0  0
   -2.8169    1.3559    1.5300 H   0  0  0  0  0  0  0  0  0  0  0  0
   -4.3036    1.9305   -0.2627 H   0  0  0  0  0  0  0  0  0  0  0  0
   -5.1631    0.8819    0.8577 H   0  0  0  0  0  0  0  0  0  0  0  0
   -3.8558   -0.0337   -1.7617 H   0  0  0  0  0  0  0  0  0  0  0  0
   -4.8046   -1.0661   -0.6933 H   0  0  0  0  0  0  0  0  0  0  0  0
   -6.0383   -0.1866   -2.7278 H   0  0  0  0  0  0  0  0  0  0  0  0
   -5.8980    1.4524   -2.0526 H   0  0  0  0  0  0  0  0  0  0  0  0
   -9.4558    0.9989    0.1060 H   0  0  0  0  0  0  0  0  0  0  0  0
  -10.2643    1.2187   -1.4588 H   0  0  0  0  0  0  0  0  0  0  0  0
   -9.8085   -0.4192   -0.9483 H   0  0  0  0  0  0  0  0  0  0  0  0
  1  2  1  0
  2  3  1  0
  3  4  1  0
  4  5  1  0
  5  6  1  0
  6  7  1  0
  7  8  1  0
  8  9  1  0
  9 10  1  0
 10 11  1  0
 11 12  1  0
 12 13  1  0
 13 14  1  0
 14 15  1  0
 15 16  1  0
 16 17  1  0
 17 18  2  0
 17 19  1  0
 19 20  1  0
  1 21  1  0
  1 22  1  0
  1 23  1  0
  2 24  1  0
  2 25  1  0
  3 26  1  0
  3 27  1  0
  4 28  1  0
  4 29  1  0
  5 30  1  0
  5 31  1  0
  6 32  1  0
  6 33  1  0
  7 34  1  0
  7 35  1  0
  8 36  1  0
  8 37  1  0
  9 38  1  0
  9 39  1  0
 10 40  1  0
 10 41  1  0
 11 42  1  0
 11 43  1  0
 12 44  1  0
 12 45  1  0
 13 46  1  0
 13 47  1  0
 14 48  1  0
 14 49  1  0
 15 50  1  0
 15 51  1  0
 16 52  1  0
 16 53  1  0
 20 54  1  0
 20 55  1  0
 20 56  1  0
M  END
$$$$
