
     RDKit          3D

 53 52  0  0  0  0  0  0  0  0999 V2000
    0.6451    2.0528    1.9488 C   0  0  0  0  0  0  0  0  0  0  0  0
    1.3306    1.0250    1.0621 C   0  0  0  0  0  0  0  0  0  0  0  0
    2.4286    0.2788    1.8219 C   0  0  0  0  0  0  0  0  0  0  0  0
    3.0847   -0.8392    1.0054 C   0  0  0  0  0  0  0  0  0  0  0  0
    3.8988   -0.3243   -0.1842 C   0  0  0  0  0  0  0  0  0  0  0  0
    4.5921   -1.4509   -0.8961 C   0  0  0  0  0  0  0  0  0  0  0  0
    4.3644   -2.0079   -2.0986 C   0  0  0  0  0  0  0  0  0  0  0  0
    3.3558   -1.7758   -3.1944 C   0  0  0  0  0  0  0  0  0  0  0  0
    2.4536   -0.5912   -3.0507 C   0  0  0  0  0  0  0  0  0  0  0  0
    1.1213   -0.5847   -2.8713 C   0  0  0  0  0  0  0  0  0  0  0  0
    0.1946   -1.7629   -2.7897 C   0  0  0  0  0  0  0  0  0  0  0  0
   -0.1996   -2.0423   -1.3693 C   0  0  0  0  0  0  0  0  0  0  0  0
   -1.3771   -1.7968   -0.7711 C   0  0  0  0  0  0  0  0  0  0  0  0
   -2.6005   -1.1783   -1.3843 C   0  0  0  0  0  0  0  0  0  0  0  0
   -2.7919    0.2905   -0.9924 C   0  0  0  0  0  0  0  0  0  0  0  0
   -3.0650    0.4924    0.5003 C   0  0  0  0  0  0  0  0  0  0  0  0
   -3.3607    1.9546    0.8140 C   0  0  0  0  0  0  0  0  0  0  0  0
   -3.6015    2.1422    2.2889 C   0  0  0  0  0  0  0  0  0  0  0  0
   -2.7413    2.4833    3.0891 O   0  0  0  0  0  0  0  0  0  0  0  0
   -4.8965    1.8552    2.5974 O   0  0  0  0  0  0  0  0  0  0  0  0
   -5.2054    1.9930    3.9849 C   0  0  0  0  0  0  0  0  0  0  0  0
    0.1627    1.5720    2.8057 H   0  0  0  0  0  0  0  0  0  0  0  0
    1.3636    2.7881    2.3250 H   0  0  0  0  0  0  0  0  0  0  0  0
   -0.1229    2.5885    1.3826 H   0  0  0  0  0  0  0  0  0  0  0  0
    1.7488    1.5395    0.1908 H   0  0  0  0  0  0  0  0  0  0  0  0
    0.5822    0.3148    0.6941 H   0  0  0  0  0  0  0  0  0  0  0  0
    1.9955   -0.1680    2.7256 H   0  0  0  0  0  0  0  0  0  0  0  0
    3.1955    0.9875    2.1577 H   0  0  0  0  0  0  0  0  0  0  0  0
    2.3148   -1.5389    0.6595 H   0  0  0  0  0  0  0  0  0  0  0  0
    3.7439   -1.4074    1.6749 H   0  0  0  0  0  0  0  0  0  0  0  0
    4.6692    0.3695    0.1756 H   0  0  0  0  0  0  0  0  0  0  0  0
    3.2684    0.2583   -0.8521 H   0  0  0  0  0  0  0  0  0  0  0  0
    5.4195   -1.8728   -0.3218 H   0  0  0  0  0  0  0  0  0  0  0  0
    5.0384   -2.8288   -2.3557 H   0  0  0  0  0  0  0  0  0  0  0  0
    3.9105   -1.6482   -4.1329 H   0  0  0  0  0  0  0  0  0  0  0  0
    2.7831   -2.7008   -3.3130 H   0  0  0  0  0  0  0  0  0  0  0  0
    2.9563    0.3738   -3.1083 H   0  0  0  0  0  0  0  0  0  0  0  0
    0.6335    0.3844   -2.7702 H   0  0  0  0  0  0  0  0  0  0  0  0
    0.6457   -2.6678   -3.2087 H   0  0  0  0  0  0  0  0  0  0  0  0
   -0.6738   -1.5580   -3.4234 H   0  0  0  0  0  0  0  0  0  0  0  0
    0.5862   -2.4953   -0.7648 H   0  0  0  0  0  0  0  0  0  0  0  0
   -1.4691   -2.0700    0.2800 H   0  0  0  0  0  0  0  0  0  0  0  0
   -3.4766   -1.7618   -1.0751 H   0  0  0  0  0  0  0  0  0  0  0  0
   -2.5707   -1.2469   -2.4764 H   0  0  0  0  0  0  0  0  0  0  0  0
   -1.9089    0.8716   -1.2874 H   0  0  0  0  0  0  0  0  0  0  0  0
   -3.6378    0.6889   -1.5666 H   0  0  0  0  0  0  0  0  0  0  0  0
   -3.9141   -0.1301    0.8085 H   0  0  0  0  0  0  0  0  0  0  0  0
   -2.2033    0.1632    1.0933 H   0  0  0  0  0  0  0  0  0  0  0  0
   -4.2352    2.3153    0.2601 H   0  0  0  0  0  0  0  0  0  0  0  0
   -2.5219    2.5967    0.5221 H   0  0  0  0  0  0  0  0  0  0  0  0
   -5.0320    3.0213    4.3174 H   0  0  0  0  0  0  0  0  0  0  0  0
   -4.6164    1.2876    4.5798 H   0  0  0  0  0  0  0  0  0  0  0  0
   -6.2654    1.7602    4.1204 H   0  0  0  0  0  0  0  0  0  0  0  0
  1  2  1  0
  2  3  1  0
  3  4  1  0
  4  5  1  0
  5  6  1  0
  6  7  2  0
  7  8  1  0
  8  9  1  0
  9 10  2  0
 10 11  1  0
 11 12  1  0
 12 13  2  0
 13 14  1  0
 14 15  1  0
 15 16  1  0
 16 17  1  0
 17 18  1  0
 18 19  2  0
 18 20  1  0
 20 21  1  0
  1 22  1  0
  1 23  1  0
  1 24  1  0
  2 25  1  0
  2 26  1  0
  3 27  1  0
  3 28  1  0
  4 29  1  0
  4 30  1  0
  5 31  1  0
  5 32  1  0
  6 33  1  0
  7 34  1  0
  8 35  1  0
  8 36  1  0
  9 37  1  0
 10 38  1  0
 11 39  1  0
 11 40  1  0
 12 41  1  0
 13 42  1  0
 14 43  1  0
 14 44  1  0
 15 45  1  0
 15 46  1  0
 16 47  1  0
 16 48  1  0
 17 49  1  0
 17 50  1  0
 21 51  1  0
 21 52  1  0
 21 53  1  0
M  END
$$$$
