
     RDKit          3D

 48 47  0  0  0  0  0  0  0  0999 V2000
   -6.3688   -0.4209    1.0256 C   0  0  0  0  0  0  0  0  0  0  0  0
   -6.1995    1.0678    0.7618 C   0  0  0  0  0  0  0  0  0  0  0  0
   -5.2131    1.3855   -0.3660 C   0  0  0  0  0  0  0  0  0  0  0  0
   -3.7817    1.6829    0.0946 C   0  0  0  0  0  0  0  0  0  0  0  0
   -3.0169    0.5273    0.7420 C   0  0  0  0  0  0  0  0  0  0  0  0
   -2.8114   -0.6649   -0.1965 C   0  0  0  0  0  0  0  0  0  0  0  0
   -2.0020   -1.7401    0.4738 C   0  0  0  0  0  0  0  0  0  0  0  0
   -0.7920   -2.1948    0.1102 C   0  0  0  0  0  0  0  0  0  0  0  0
    0.0269   -1.7553   -1.0708 C   0  0  0  0  0  0  0  0  0  0  0  0
    1.0494   -0.6656   -0.7306 C   0  0  0  0  0  0  0  0  0  0  0  0
    2.1456   -1.1429    0.2280 C   0  0  0  0  0  0  0  0  0  0  0  0
    3.1438   -0.0431    0.6091 C   0  0  0  0  0  0  0  0  0  0  0  0
    4.0273    0.4079   -0.5574 C   0  0  0  0  0  0  0  0  0  0  0  0
    5.0176    1.5180   -0.1799 C   0  0  0  0  0  0  0  0  0  0  0  0
    6.0899    1.1152    0.8324 C   0  0  0  0  0  0  0  0  0  0  0  0
    7.0534    0.0925    0.2921 C   0  0  0  0  0  0  0  0  0  0  0  0
    7.2689   -0.1807   -0.8758 O   0  0  0  0  0  0  0  0  0  0  0  0
    7.7412   -0.5208    1.2756 O   0  0  0  0  0  0  0  0  0  0  0  0
   -6.6725   -0.9479    0.1154 H   0  0  0  0  0  0  0  0  0  0  0  0
   -7.1461   -0.5806    1.7800 H   0  0  0  0  0  0  0  0  0  0  0  0
   -5.4505   -0.8799    1.3968 H   0  0  0  0  0  0  0  0  0  0  0  0
   -7.1830    1.4612    0.4753 H   0  0  0  0  0  0  0  0  0  0  0  0
   -5.9148    1.5831    1.6860 H   0  0  0  0  0  0  0  0  0  0  0  0
   -5.5728    2.2934   -0.8686 H   0  0  0  0  0  0  0  0  0  0  0  0
   -5.2234    0.5999   -1.1294 H   0  0  0  0  0  0  0  0  0  0  0  0
   -3.2100    2.0361   -0.7733 H   0  0  0  0  0  0  0  0  0  0  0  0
   -3.8056    2.5215    0.8019 H   0  0  0  0  0  0  0  0  0  0  0  0
   -3.5199    0.2134    1.6633 H   0  0  0  0  0  0  0  0  0  0  0  0
   -2.0343    0.9080    1.0522 H   0  0  0  0  0  0  0  0  0  0  0  0
   -2.3391   -0.3175   -1.1202 H   0  0  0  0  0  0  0  0  0  0  0  0
   -3.7752   -1.1001   -0.4811 H   0  0  0  0  0  0  0  0  0  0  0  0
   -2.4622   -2.1831    1.3570 H   0  0  0  0  0  0  0  0  0  0  0  0
   -0.3415   -2.9756    0.7223 H   0  0  0  0  0  0  0  0  0  0  0  0
    0.5430   -2.6324   -1.4810 H   0  0  0  0  0  0  0  0  0  0  0  0
   -0.6215   -1.3960   -1.8773 H   0  0  0  0  0  0  0  0  0  0  0  0
    1.5037   -0.3333   -1.6706 H   0  0  0  0  0  0  0  0  0  0  0  0
    0.5355    0.2037   -0.3018 H   0  0  0  0  0  0  0  0  0  0  0  0
    1.6870   -1.5089    1.1542 H   0  0  0  0  0  0  0  0  0  0  0  0
    2.6828   -1.9902   -0.2151 H   0  0  0  0  0  0  0  0  0  0  0  0
    3.7745   -0.4378    1.4133 H   0  0  0  0  0  0  0  0  0  0  0  0
    2.6035    0.8173    1.0218 H   0  0  0  0  0  0  0  0  0  0  0  0
    3.3961    0.7965   -1.3643 H   0  0  0  0  0  0  0  0  0  0  0  0
    4.5639   -0.4544   -0.9687 H   0  0  0  0  0  0  0  0  0  0  0  0
    4.4573    2.3707    0.2231 H   0  0  0  0  0  0  0  0  0  0  0  0
    5.5035    1.8717   -1.0980 H   0  0  0  0  0  0  0  0  0  0  0  0
    5.6293    0.7293    1.7466 H   0  0  0  0  0  0  0  0  0  0  0  0
    6.6776    2.0004    1.1019 H   0  0  0  0  0  0  0  0  0  0  0  0
    8.3368   -1.1364    0.7990 H   0  0  0  0  0  0  0  0  0  0  0  0
  1  2  1  0
  2  3  1  0
  3  4  1  0
  4  5  1  0
  5  6  1  0
  6  7  1  0
  7  8  2  0
  8  9  1  0
  9 10  1  0
 10 11  1  0
 11 12  1  0
 12 13  1  0
 13 14  1  0
 14 15  1  0
 15 16  1  0
 16 17  2  0
 16 18  1  0
  1 19  1  0
  1 20  1  0
  1 21  1  0
  2 22  1  0
  2 23  1  0
  3 24  1  0
  3 25  1  0
  4 26  1  0
  4 27  1  0
  5 28  1  0
  5 29  1  0
  6 30  1  0
  6 31  1  0
  7 32  1  0
  8 33  1  0
  9 34  1  0
  9 35  1  0
 10 36  1  0
 10 37  1  0
 11 38  1  0
 11 39  1  0
 12 40  1  0
 12 41  1  0
 13 42  1  0
 13 43  1  0
 14 44  1  0
 14 45  1  0
 15 46  1  0
 15 47  1  0
 18 48  1  0
M  END
$$$$
