
     RDKit          3D

 52 51  0  0  0  0  0  0  0  0999 V2000
   52.9850   40.0790   21.4960 C   0  0  0  0  0  0  0  0  0  0  0  0
   54.0850   41.1180   21.3360 C   0  0  0  0  0  0  0  0  0  0  0  0
   55.0200   40.7670   20.1790 C   0  0  0  0  0  0  0  0  0  0  0  0
   55.2380   41.9240   19.2000 C   0  0  0  0  0  0  0  0  0  0  0  0
   53.9940   42.2560   18.3670 C   0  0  0  0  0  0  0  0  0  0  0  0
   54.3150   43.0820   17.1170 C   0  0  0  0  0  0  0  0  0  0  0  0
   53.2240   43.0330   16.0870 C   0  0  0  0  0  0  0  0  0  0  0  0
   52.6480   44.1250   15.5610 C   0  0  0  0  0  0  0  0  0  0  0  0
   53.0210   45.4700   15.9340 C   0  0  0  0  0  0  0  0  0  0  0  0
   52.4040   46.1590   16.9060 C   0  0  0  0  0  0  0  0  0  0  0  0
   52.7860   47.5560   17.3060 C   0  0  0  0  0  0  0  0  0  0  0  0
   52.2050   47.9160   18.6740 C   0  0  0  0  0  0  0  0  0  0  0  0
   51.7860   46.6920   19.4970 C   0  0  0  0  0  0  0  0  0  0  0  0
   52.7150   46.3200   20.6570 C   0  0  0  0  0  0  0  0  0  0  0  0
   53.7840   45.2690   20.3420 C   0  0  0  0  0  0  0  0  0  0  0  0
   55.2110   45.7520   20.6210 C   0  0  0  0  0  0  0  0  0  0  0  0
   55.5600   47.0170   19.8370 C   0  0  0  0  0  0  0  0  0  0  0  0
   56.2120   48.0790   20.6890 C   0  0  0  0  0  0  0  0  0  0  0  0
   56.3410   49.2580   20.3980 O   0  0  0  0  0  0  0  0  0  0  0  0
   56.6800   47.5310   21.8400 O   0  0  0  0  0  0  0  0  0  0  0  0
   52.7992   39.9035   22.5659 H   0  0  0  0  0  0  0  0  0  0  0  0
   52.0636   40.4441   21.0189 H   0  0  0  0  0  0  0  0  0  0  0  0
   53.2970   39.1382   21.0189 H   0  0  0  0  0  0  0  0  0  0  0  0
   53.6257   42.0982   21.1402 H   0  0  0  0  0  0  0  0  0  0  0  0
   54.6760   41.1420   22.2635 H   0  0  0  0  0  0  0  0  0  0  0  0
   55.9952   40.4743   20.5954 H   0  0  0  0  0  0  0  0  0  0  0  0
   54.5461   39.9499   19.6153 H   0  0  0  0  0  0  0  0  0  0  0  0
   55.5227   42.8181   19.7740 H   0  0  0  0  0  0  0  0  0  0  0  0
   56.0264   41.6133   18.4987 H   0  0  0  0  0  0  0  0  0  0  0  0
   53.5205   41.3141   18.0530 H   0  0  0  0  0  0  0  0  0  0  0  0
   53.3260   42.8600   18.9986 H   0  0  0  0  0  0  0  0  0  0  0  0
   54.4666   44.1291   17.4179 H   0  0  0  0  0  0  0  0  0  0  0  0
   55.2187   42.6517   16.6607 H   0  0  0  0  0  0  0  0  0  0  0  0
   52.8773   42.0469   15.7443 H   0  0  0  0  0  0  0  0  0  0  0  0
   51.8549   43.9897   14.8109 H   0  0  0  0  0  0  0  0  0  0  0  0
   53.8502   45.9521   15.3955 H   0  0  0  0  0  0  0  0  0  0  0  0
   51.5728   45.6745   17.4393 H   0  0  0  0  0  0  0  0  0  0  0  0
   53.8826   47.6295   17.3509 H   0  0  0  0  0  0  0  0  0  0  0  0
   52.3815   48.2557   16.5598 H   0  0  0  0  0  0  0  0  0  0  0  0
   52.9654   48.4737   19.2403 H   0  0  0  0  0  0  0  0  0  0  0  0
   51.2991   48.5140   18.4957 H   0  0  0  0  0  0  0  0  0  0  0  0
   50.7879   46.8912   19.9142 H   0  0  0  0  0  0  0  0  0  0  0  0
   51.8181   45.8394   18.8027 H   0  0  0  0  0  0  0  0  0  0  0  0
   53.2281   47.2357   20.9859 H   0  0  0  0  0  0  0  0  0  0  0  0
   52.0693   45.8696   21.4252 H   0  0  0  0  0  0  0  0  0  0  0  0
   53.5902   44.3786   20.9582 H   0  0  0  0  0  0  0  0  0  0  0  0
   53.7189   45.0511   19.2658 H   0  0  0  0  0  0  0  0  0  0  0  0
   55.3087   45.9640   21.6959 H   0  0  0  0  0  0  0  0  0  0  0  0
   55.9028   44.9580   20.3031 H   0  0  0  0  0  0  0  0  0  0  0  0
   56.2508   46.7464   19.0248 H   0  0  0  0  0  0  0  0  0  0  0  0
   54.6182   47.4360   19.4531 H   0  0  0  0  0  0  0  0  0  0  0  0
   56.2270   47.8970   22.6290 H   0  0  0  0  0  0  0  0  0  0  0  0
  1  2  1  0
  2  3  1  0
  3  4  1  0
  4  5  1  0
  5  6  1  0
  6  7  1  0
  7  8  2  0
  8  9  1  0
  9 10  2  0
 10 11  1  0
 11 12  1  0
 12 13  1  0
 13 14  1  0
 14 15  1  0
 15 16  1  0
 16 17  1  0
 17 18  1  0
 18 19  2  0
 18 20  1  0
  1 21  1  0
  1 22  1  0
  1 23  1  0
  2 24  1  0
  2 25  1  0
  3 26  1  0
  3 27  1  0
  4 28  1  0
  4 29  1  0
  5 30  1  0
  5 31  1  0
  6 32  1  0
  6 33  1  0
  7 34  1  0
  8 35  1  0
  9 36  1  0
 10 37  1  0
 11 38  1  0
 11 39  1  0
 12 40  1  0
 12 41  1  0
 13 42  1  0
 13 43  1  0
 14 44  1  0
 14 45  1  0
 15 46  1  0
 15 47  1  0
 16 48  1  0
 16 49  1  0
 17 50  1  0
 17 51  1  0
 20 52  1  0
M  END
>  <meeko>  (1) 
{"is_sidechain": false}

$$$$
