
     RDKit          3D

 53 52  0  0  0  0  0  0  0  0999 V2000
   54.0780   41.3260   21.2270 C   0  0  0  0  0  0  0  0  0  0  0  0
   55.1980   42.0060   20.4550 C   0  0  0  0  0  0  0  0  0  0  0  0
   54.9950   41.8680   18.9460 C   0  0  0  0  0  0  0  0  0  0  0  0
   54.6170   43.1840   18.2570 C   0  0  0  0  0  0  0  0  0  0  0  0
   54.5480   43.1330   16.7260 C   0  0  0  0  0  0  0  0  0  0  0  0
   53.2530   42.5660   16.2210 C   0  0  0  0  0  0  0  0  0  0  0  0
   52.2640   43.3100   15.7050 C   0  0  0  0  0  0  0  0  0  0  0  0
   52.3340   44.8040   15.5690 C   0  0  0  0  0  0  0  0  0  0  0  0
   51.4560   45.4830   16.5790 C   0  0  0  0  0  0  0  0  0  0  0  0
   51.8470   46.5350   17.3140 C   0  0  0  0  0  0  0  0  0  0  0  0
   53.2050   47.1630   17.2190 C   0  0  0  0  0  0  0  0  0  0  0  0
   53.8740   47.2280   18.5940 C   0  0  0  0  0  0  0  0  0  0  0  0
   52.8550   47.5200   19.7000 C   0  0  0  0  0  0  0  0  0  0  0  0
   52.7690   46.4060   20.7480 C   0  0  0  0  0  0  0  0  0  0  0  0
   53.9520   45.4810   20.7200 C   0  0  0  0  0  0  0  0  0  0  0  0
   55.0390   45.6480   21.4870 C   0  0  0  0  0  0  0  0  0  0  0  0
   55.2110   46.7700   22.4610 C   0  0  0  0  0  0  0  0  0  0  0  0
   55.9990   47.8940   21.8220 C   0  0  0  0  0  0  0  0  0  0  0  0
   56.9920   47.7550   21.1210 O   0  0  0  0  0  0  0  0  0  0  0  0
   55.3990   49.0830   22.1280 O   0  0  0  0  0  0  0  0  0  0  0  0
   54.2430   48.9890   22.9670 C   0  0  0  0  0  0  0  0  0  0  0  0
   54.2580   41.4353   22.3067 H   0  0  0  0  0  0  0  0  0  0  0  0
   53.1168   41.7932   20.9664 H   0  0  0  0  0  0  0  0  0  0  0  0
   54.0491   40.2577   20.9664 H   0  0  0  0  0  0  0  0  0  0  0  0
   55.2175   43.0740   20.7179 H   0  0  0  0  0  0  0  0  0  0  0  0
   56.1487   41.5221   20.7234 H   0  0  0  0  0  0  0  0  0  0  0  0
   55.9307   41.4984   18.5012 H   0  0  0  0  0  0  0  0  0  0  0  0
   54.1573   41.1713   18.7946 H   0  0  0  0  0  0  0  0  0  0  0  0
   53.6287   43.4901   18.6305 H   0  0  0  0  0  0  0  0  0  0  0  0
   55.4224   43.8931   18.4990 H   0  0  0  0  0  0  0  0  0  0  0  0
   54.6606   44.1549   16.3348 H   0  0  0  0  0  0  0  0  0  0  0  0
   55.3564   42.4723   16.3797 H   0  0  0  0  0  0  0  0  0  0  0  0
   53.1070   41.4772   16.2775 H   0  0  0  0  0  0  0  0  0  0  0  0
   51.3522   42.7985   15.3629 H   0  0  0  0  0  0  0  0  0  0  0  0
   53.3736   45.1297   15.7208 H   0  0  0  0  0  0  0  0  0  0  0  0
   51.9842   45.0788   14.5629 H   0  0  0  0  0  0  0  0  0  0  0  0
   50.4363   45.0971   16.7246 H   0  0  0  0  0  0  0  0  0  0  0  0
   51.1284   46.9622   18.0289 H   0  0  0  0  0  0  0  0  0  0  0  0
   53.8319   46.5647   16.5414 H   0  0  0  0  0  0  0  0  0  0  0  0
   53.0924   48.1873   16.8341 H   0  0  0  0  0  0  0  0  0  0  0  0
   54.3600   46.2632   18.8012 H   0  0  0  0  0  0  0  0  0  0  0  0
   54.6125   48.0431   18.5807 H   0  0  0  0  0  0  0  0  0  0  0  0
   53.1441   48.4537   20.2046 H   0  0  0  0  0  0  0  0  0  0  0  0
   51.8669   47.5982   19.2230 H   0  0  0  0  0  0  0  0  0  0  0  0
   52.7078   46.8667   21.7450 H   0  0  0  0  0  0  0  0  0  0  0  0
   51.8765   45.8057   20.5175 H   0  0  0  0  0  0  0  0  0  0  0  0
   53.9252   44.6214   20.0342 H   0  0  0  0  0  0  0  0  0  0  0  0
   55.8540   44.9151   21.3943 H   0  0  0  0  0  0  0  0  0  0  0  0
   54.2220   47.1446   22.7636 H   0  0  0  0  0  0  0  0  0  0  0  0
   55.7564   46.4024   23.3427 H   0  0  0  0  0  0  0  0  0  0  0  0
   54.5527   49.0142   24.0222 H   0  0  0  0  0  0  0  0  0  0  0  0
   53.5712   49.8355   22.7618 H   0  0  0  0  0  0  0  0  0  0  0  0
   53.7168   48.0451   22.7618 H   0  0  0  0  0  0  0  0  0  0  0  0
  1  2  1  0
  2  3  1  0
  3  4  1  0
  4  5  1  0
  5  6  1  0
  6  7  2  0
  7  8  1  0
  8  9  1  0
  9 10  2  0
 10 11  1  0
 11 12  1  0
 12 13  1  0
 13 14  1  0
 14 15  1  0
 15 16  2  0
 16 17  1  0
 17 18  1  0
 18 19  2  0
 18 20  1  0
 20 21  1  0
  1 22  1  0
  1 23  1  0
  1 24  1  0
  2 25  1  0
  2 26  1  0
  3 27  1  0
  3 28  1  0
  4 29  1  0
  4 30  1  0
  5 31  1  0
  5 32  1  0
  6 33  1  0
  7 34  1  0
  8 35  1  0
  8 36  1  0
  9 37  1  0
 10 38  1  0
 11 39  1  0
 11 40  1  0
 12 41  1  0
 12 42  1  0
 13 43  1  0
 13 44  1  0
 14 45  1  0
 14 46  1  0
 15 47  1  0
 16 48  1  0
 17 49  1  0
 17 50  1  0
 21 51  1  0
 21 52  1  0
 21 53  1  0
M  END
>  <meeko>  (1) 
{"is_sidechain": false}

$$$$
