
     RDKit          3D

 53 52  0  0  0  0  0  0  0  0999 V2000
   53.8350   40.8510   22.2810 C   0  0  0  0  0  0  0  0  0  0  0  0
   53.9890   40.0800   20.9790 C   0  0  0  0  0  0  0  0  0  0  0  0
   54.9830   40.7160   20.0020 C   0  0  0  0  0  0  0  0  0  0  0  0
   55.5220   42.0660   20.4820 C   0  0  0  0  0  0  0  0  0  0  0  0
   55.1110   43.2370   19.5850 C   0  0  0  0  0  0  0  0  0  0  0  0
   54.1400   42.8400   18.4710 C   0  0  0  0  0  0  0  0  0  0  0  0
   54.8050   42.9390   17.0960 C   0  0  0  0  0  0  0  0  0  0  0  0
   53.8060   42.6360   15.9760 C   0  0  0  0  0  0  0  0  0  0  0  0
   52.4830   43.3710   16.1970 C   0  0  0  0  0  0  0  0  0  0  0  0
   52.5320   44.8560   15.8160 C   0  0  0  0  0  0  0  0  0  0  0  0
   51.6210   45.7840   16.6270 C   0  0  0  0  0  0  0  0  0  0  0  0
   52.1860   46.1460   18.0030 C   0  0  0  0  0  0  0  0  0  0  0  0
   53.6570   46.5550   17.9050 C   0  0  0  0  0  0  0  0  0  0  0  0
   54.1570   47.3540   19.1140 C   0  0  0  0  0  0  0  0  0  0  0  0
   55.5500   46.9760   19.6130 C   0  0  0  0  0  0  0  0  0  0  0  0
   56.0700   47.9380   20.6560 C   0  0  0  0  0  0  0  0  0  0  0  0
   56.2080   49.1400   20.4690 O   0  0  0  0  0  0  0  0  0  0  0  0
   56.3510   47.2660   21.8080 O   0  0  0  0  0  0  0  0  0  0  0  0
   55.2180   46.8540   22.5780 C   0  0  0  0  0  0  0  0  0  0  0  0
   53.9718   40.1663   23.1310 H   0  0  0  0  0  0  0  0  0  0  0  0
   54.5917   41.6481   22.3268 H   0  0  0  0  0  0  0  0  0  0  0  0
   52.8302   41.2962   22.3268 H   0  0  0  0  0  0  0  0  0  0  0  0
   54.3366   39.0637   21.2160 H   0  0  0  0  0  0  0  0  0  0  0  0
   53.0060   40.0822   20.4853 H   0  0  0  0  0  0  0  0  0  0  0  0
   55.8312   40.0283   19.8694 H   0  0  0  0  0  0  0  0  0  0  0  0
   54.4449   40.8958   19.0596 H   0  0  0  0  0  0  0  0  0  0  0  0
   55.1407   42.2531   21.4967 H   0  0  0  0  0  0  0  0  0  0  0  0
   56.6200   42.0059   20.4558 H   0  0  0  0  0  0  0  0  0  0  0  0
   54.6290   44.0026   20.2107 H   0  0  0  0  0  0  0  0  0  0  0  0
   56.0252   43.6100   19.1001 H   0  0  0  0  0  0  0  0  0  0  0  0
   53.8091   41.8040   18.6358 H   0  0  0  0  0  0  0  0  0  0  0  0
   53.2829   43.5292   18.4939 H   0  0  0  0  0  0  0  0  0  0  0  0
   55.1988   43.9571   16.9601 H   0  0  0  0  0  0  0  0  0  0  0  0
   55.6180   42.1996   17.0477 H   0  0  0  0  0  0  0  0  0  0  0  0
   54.2370   42.9550   15.0155 H   0  0  0  0  0  0  0  0  0  0  0  0
   53.6058   41.5544   15.9728 H   0  0  0  0  0  0  0  0  0  0  0  0
   51.7080   42.8817   15.5887 H   0  0  0  0  0  0  0  0  0  0  0  0
   52.2640   43.3223   17.2739 H   0  0  0  0  0  0  0  0  0  0  0  0
   53.5678   45.2033   15.9447 H   0  0  0  0  0  0  0  0  0  0  0  0
   52.1668   44.9104   14.7798 H   0  0  0  0  0  0  0  0  0  0  0  0
   51.4733   46.7126   16.0562 H   0  0  0  0  0  0  0  0  0  0  0  0
   50.6780   45.2437   16.7968 H   0  0  0  0  0  0  0  0  0  0  0  0
   51.6074   46.9835   18.4198 H   0  0  0  0  0  0  0  0  0  0  0  0
   52.1120   45.2625   18.6542 H   0  0  0  0  0  0  0  0  0  0  0  0
   54.2657   45.6431   17.8157 H   0  0  0  0  0  0  0  0  0  0  0  0
   53.7504   47.2100   17.0262 H   0  0  0  0  0  0  0  0  0  0  0  0
   54.1725   48.4181   18.8357 H   0  0  0  0  0  0  0  0  0  0  0  0
   53.4653   47.1250   19.9381 H   0  0  0  0  0  0  0  0  0  0  0  0
   55.5063   45.9685   20.0524 H   0  0  0  0  0  0  0  0  0  0  0  0
   56.2350   47.0118   18.7531 H   0  0  0  0  0  0  0  0  0  0  0  0
   55.4522   46.9392   23.6494 H   0  0  0  0  0  0  0  0  0  0  0  0
   54.3583   47.4971   22.3384 H   0  0  0  0  0  0  0  0  0  0  0  0
   54.9722   45.8089   22.3384 H   0  0  0  0  0  0  0  0  0  0  0  0
  1  2  1  0
  2  3  1  0
  3  4  1  0
  4  5  1  0
  5  6  1  0
  6  7  1  0
  7  8  1  0
  8  9  1  0
  9 10  1  0
 10 11  1  0
 11 12  1  0
 12 13  1  0
 13 14  1  0
 14 15  1  0
 15 16  1  0
 16 17  2  0
 16 18  1  0
 18 19  1  0
  1 20  1  0
  1 21  1  0
  1 22  1  0
  2 23  1  0
  2 24  1  0
  3 25  1  0
  3 26  1  0
  4 27  1  0
  4 28  1  0
  5 29  1  0
  5 30  1  0
  6 31  1  0
  6 32  1  0
  7 33  1  0
  7 34  1  0
  8 35  1  0
  8 36  1  0
  9 37  1  0
  9 38  1  0
 10 39  1  0
 10 40  1  0
 11 41  1  0
 11 42  1  0
 12 43  1  0
 12 44  1  0
 13 45  1  0
 13 46  1  0
 14 47  1  0
 14 48  1  0
 15 49  1  0
 15 50  1  0
 19 51  1  0
 19 52  1  0
 19 53  1  0
M  END
>  <meeko>  (1) 
{"is_sidechain": false}

$$$$
