
     RDKit          3D

 68 67  0  0  0  0  0  0  0  0999 V2000
   53.5640   40.9690   22.1670 C   0  0  0  0  0  0  0  0  0  0  0  0
   53.7910   40.3120   20.8160 C   0  0  0  0  0  0  0  0  0  0  0  0
   55.1670   40.5860   20.2010 C   0  0  0  0  0  0  0  0  0  0  0  0
   55.1480   41.5120   18.9780 C   0  0  0  0  0  0  0  0  0  0  0  0
   54.9130   42.9800   19.3460 C   0  0  0  0  0  0  0  0  0  0  0  0
   54.2760   43.7940   18.2160 C   0  0  0  0  0  0  0  0  0  0  0  0
   54.5110   43.1890   16.8270 C   0  0  0  0  0  0  0  0  0  0  0  0
   53.1940   43.0450   16.0610 C   0  0  0  0  0  0  0  0  0  0  0  0
   52.6860   44.3620   15.4650 C   0  0  0  0  0  0  0  0  0  0  0  0
   51.3810   44.8510   16.0990 C   0  0  0  0  0  0  0  0  0  0  0  0
   51.5540   46.1120   16.9540 C   0  0  0  0  0  0  0  0  0  0  0  0
   52.9640   46.7050   16.8820 C   0  0  0  0  0  0  0  0  0  0  0  0
   53.0070   48.1060   17.4910 C   0  0  0  0  0  0  0  0  0  0  0  0
   53.4280   48.1350   18.9660 C   0  0  0  0  0  0  0  0  0  0  0  0
   54.6920   47.3250   19.2810 C   0  0  0  0  0  0  0  0  0  0  0  0
   54.6420   46.6640   20.6620 C   0  0  0  0  0  0  0  0  0  0  0  0
   53.2580   46.7330   21.3200 C   0  0  0  0  0  0  0  0  0  0  0  0
   53.1760   47.5700   22.6010 C   0  0  0  0  0  0  0  0  0  0  0  0
   53.1370   49.0790   22.3380 C   0  0  0  0  0  0  0  0  0  0  0  0
   52.4430   49.8450   23.4610 C   0  0  0  0  0  0  0  0  0  0  0  0
   53.3490   50.8740   24.0900 C   0  0  0  0  0  0  0  0  0  0  0  0
   53.0200   52.0300   24.3210 O   0  0  0  0  0  0  0  0  0  0  0  0
   54.5720   50.3360   24.3540 O   0  0  0  0  0  0  0  0  0  0  0  0
   55.5210   51.2750   24.8590 C   0  0  0  0  0  0  0  0  0  0  0  0
   53.8104   40.2559   22.9675 H   0  0  0  0  0  0  0  0  0  0  0  0
   54.2075   41.8567   22.2558 H   0  0  0  0  0  0  0  0  0  0  0  0
   52.5097   41.2701   22.2558 H   0  0  0  0  0  0  0  0  0  0  0  0
   53.6800   39.2246   20.9395 H   0  0  0  0  0  0  0  0  0  0  0  0
   53.0488   40.7442   20.1287 H   0  0  0  0  0  0  0  0  0  0  0  0
   55.8011   41.0487   20.9716 H   0  0  0  0  0  0  0  0  0  0  0  0
   55.5504   39.6161   19.8512 H   0  0  0  0  0  0  0  0  0  0  0  0
   56.1153   41.4303   18.4607 H   0  0  0  0  0  0  0  0  0  0  0  0
   54.3128   41.1946   18.3364 H   0  0  0  0  0  0  0  0  0  0  0  0
   54.2480   43.0182   20.2214 H   0  0  0  0  0  0  0  0  0  0  0  0
   55.8973   43.4253   19.5530 H   0  0  0  0  0  0  0  0  0  0  0  0
   53.1919   43.8497   18.3939 H   0  0  0  0  0  0  0  0  0  0  0  0
   54.7484   44.7874   18.2233 H   0  0  0  0  0  0  0  0  0  0  0  0
   55.1876   43.8445   16.2590 H   0  0  0  0  0  0  0  0  0  0  0  0
   54.9553   42.1903   16.9506 H   0  0  0  0  0  0  0  0  0  0  0  0
   53.3448   42.3272   15.2412 H   0  0  0  0  0  0  0  0  0  0  0  0
   52.4366   42.7027   16.7815 H   0  0  0  0  0  0  0  0  0  0  0  0
   53.4566   45.1327   15.6140 H   0  0  0  0  0  0  0  0  0  0  0  0
   52.4820   44.1798   14.3996 H   0  0  0  0  0  0  0  0  0  0  0  0
   50.6636   45.0709   15.2946 H   0  0  0  0  0  0  0  0  0  0  0  0
   51.0254   44.0524   16.7667 H   0  0  0  0  0  0  0  0  0  0  0  0
   50.8380   46.8709   16.6054 H   0  0  0  0  0  0  0  0  0  0  0  0
   51.3757   45.8228   18.0002 H   0  0  0  0  0  0  0  0  0  0  0  0
   53.6562   46.0524   17.4343 H   0  0  0  0  0  0  0  0  0  0  0  0
   53.2580   46.7761   15.8244 H   0  0  0  0  0  0  0  0  0  0  0  0
   53.7230   48.7111   16.9154 H   0  0  0  0  0  0  0  0  0  0  0  0
   51.9822   48.5032   17.4457 H   0  0  0  0  0  0  0  0  0  0  0  0
   53.6103   49.1817   19.2511 H   0  0  0  0  0  0  0  0  0  0  0  0
   52.6086   47.6716   19.5352 H   0  0  0  0  0  0  0  0  0  0  0  0
   54.8058   46.5399   18.5190 H   0  0  0  0  0  0  0  0  0  0  0  0
   55.5428   48.0222   19.2771 H   0  0  0  0  0  0  0  0  0  0  0  0
   54.9240   45.6064   20.5529 H   0  0  0  0  0  0  0  0  0  0  0  0
   55.3384   47.2148   21.3113 H   0  0  0  0  0  0  0  0  0  0  0  0
   52.5567   47.1625   20.5894 H   0  0  0  0  0  0  0  0  0  0  0  0
   53.0139   45.7024   21.6172 H   0  0  0  0  0  0  0  0  0  0  0  0
   52.2629   47.2868   23.1452 H   0  0  0  0  0  0  0  0  0  0  0  0
   54.0864   47.3643   23.1832 H   0  0  0  0  0  0  0  0  0  0  0  0
   54.1688   49.4483   22.2430 H   0  0  0  0  0  0  0  0  0  0  0  0
   52.5642   49.2448   21.4136 H   0  0  0  0  0  0  0  0  0  0  0  0
   51.5594   50.3546   23.0494 H   0  0  0  0  0  0  0  0  0  0  0  0
   52.1598   49.1217   24.2398 H   0  0  0  0  0  0  0  0  0  0  0  0
   55.5040   51.2581   25.9587 H   0  0  0  0  0  0  0  0  0  0  0  0
   56.5269   51.0068   24.5037 H   0  0  0  0  0  0  0  0  0  0  0  0
   55.2635   52.2837   24.5037 H   0  0  0  0  0  0  0  0  0  0  0  0
  1  2  1  0
  2  3  1  0
  3  4  1  0
  4  5  1  0
  5  6  1  0
  6  7  1  0
  7  8  1  0
  8  9  1  0
  9 10  1  0
 10 11  1  0
 11 12  1  0
 12 13  1  0
 13 14  1  0
 14 15  1  0
 15 16  1  0
 16 17  1  0
 17 18  1  0
 18 19  1  0
 19 20  1  0
 20 21  1  0
 21 22  2  0
 21 23  1  0
 23 24  1  0
  1 25  1  0
  1 26  1  0
  1 27  1  0
  2 28  1  0
  2 29  1  0
  3 30  1  0
  3 31  1  0
  4 32  1  0
  4 33  1  0
  5 34  1  0
  5 35  1  0
  6 36  1  0
  6 37  1  0
  7 38  1  0
  7 39  1  0
  8 40  1  0
  8 41  1  0
  9 42  1  0
  9 43  1  0
 10 44  1  0
 10 45  1  0
 11 46  1  0
 11 47  1  0
 12 48  1  0
 12 49  1  0
 13 50  1  0
 13 51  1  0
 14 52  1  0
 14 53  1  0
 15 54  1  0
 15 55  1  0
 16 56  1  0
 16 57  1  0
 17 58  1  0
 17 59  1  0
 18 60  1  0
 18 61  1  0
 19 62  1  0
 19 63  1  0
 20 64  1  0
 20 65  1  0
 24 66  1  0
 24 67  1  0
 24 68  1  0
M  END
>  <meeko>  (1) 
{"is_sidechain": false}

$$$$
