
     RDKit          3D

 59 58  0  0  0  0  0  0  0  0999 V2000
   53.4540   40.2340   21.2560 C   0  0  0  0  0  0  0  0  0  0  0  0
   54.4790   41.2670   21.6960 C   0  0  0  0  0  0  0  0  0  0  0  0
   55.2940   41.7840   20.5100 C   0  0  0  0  0  0  0  0  0  0  0  0
   55.2310   43.3040   20.3430 C   0  0  0  0  0  0  0  0  0  0  0  0
   54.8090   43.7450   18.9380 C   0  0  0  0  0  0  0  0  0  0  0  0
   54.3630   42.5480   18.0940 C   0  0  0  0  0  0  0  0  0  0  0  0
   54.3500   42.8960   16.6030 C   0  0  0  0  0  0  0  0  0  0  0  0
   52.9380   42.9590   16.0100 C   0  0  0  0  0  0  0  0  0  0  0  0
   52.4870   44.3560   15.5640 C   0  0  0  0  0  0  0  0  0  0  0  0
   53.4510   45.5120   15.8400 C   0  0  0  0  0  0  0  0  0  0  0  0
   52.9700   46.5570   16.8550 C   0  0  0  0  0  0  0  0  0  0  0  0
   51.5310   46.3590   17.3460 C   0  0  0  0  0  0  0  0  0  0  0  0
   51.3090   46.4390   18.8570 C   0  0  0  0  0  0  0  0  0  0  0  0
   52.5770   46.4960   19.7090 C   0  0  0  0  0  0  0  0  0  0  0  0
   53.0220   47.8830   20.1850 C   0  0  0  0  0  0  0  0  0  0  0  0
   54.3230   48.3940   19.5560 C   0  0  0  0  0  0  0  0  0  0  0  0
   55.5540   47.5720   19.9360 C   0  0  0  0  0  0  0  0  0  0  0  0
   55.8450   47.6480   21.4180 C   0  0  0  0  0  0  0  0  0  0  0  0
   56.0490   46.6930   22.1540 O   0  0  0  0  0  0  0  0  0  0  0  0
   55.8370   48.9530   21.8130 O   0  0  0  0  0  0  0  0  0  0  0  0
   55.2510   49.1660   23.0980 C   0  0  0  0  0  0  0  0  0  0  0  0
   52.9954   39.7718   22.1426 H   0  0  0  0  0  0  0  0  0  0  0  0
   52.6749   40.7240   20.6535 H   0  0  0  0  0  0  0  0  0  0  0  0
   53.9500   39.4588   20.6535 H   0  0  0  0  0  0  0  0  0  0  0  0
   53.9558   42.1125   22.1666 H   0  0  0  0  0  0  0  0  0  0  0  0
   55.1682   40.7896   22.4081 H   0  0  0  0  0  0  0  0  0  0  0  0
   56.3447   41.4929   20.6561 H   0  0  0  0  0  0  0  0  0  0  0  0
   54.8609   41.3402   19.6014 H   0  0  0  0  0  0  0  0  0  0  0  0
   54.5057   43.7045   21.0666 H   0  0  0  0  0  0  0  0  0  0  0  0
   56.2462   43.6917   20.5137 H   0  0  0  0  0  0  0  0  0  0  0  0
   53.9745   44.4569   19.0206 H   0  0  0  0  0  0  0  0  0  0  0  0
   55.6727   44.2162   18.4461 H   0  0  0  0  0  0  0  0  0  0  0  0
   55.0582   41.7121   18.2613 H   0  0  0  0  0  0  0  0  0  0  0  0
   53.3424   42.2700   18.3957 H   0  0  0  0  0  0  0  0  0  0  0  0
   54.8297   43.8768   16.4687 H   0  0  0  0  0  0  0  0  0  0  0  0
   54.8905   42.0960   16.0759 H   0  0  0  0  0  0  0  0  0  0  0  0
   52.9048   42.2935   15.1348 H   0  0  0  0  0  0  0  0  0  0  0  0
   52.2516   42.6550   16.8140 H   0  0  0  0  0  0  0  0  0  0  0  0
   52.3135   44.3191   14.4784 H   0  0  0  0  0  0  0  0  0  0  0  0
   51.5930   44.5762   16.1659 H   0  0  0  0  0  0  0  0  0  0  0  0
   54.3916   45.0839   16.2169 H   0  0  0  0  0  0  0  0  0  0  0  0
   53.5534   46.0489   14.8854 H   0  0  0  0  0  0  0  0  0  0  0  0
   53.6381   46.5194   17.7281 H   0  0  0  0  0  0  0  0  0  0  0  0
   52.9902   47.5265   16.3357 H   0  0  0  0  0  0  0  0  0  0  0  0
   50.9076   47.1333   16.8751 H   0  0  0  0  0  0  0  0  0  0  0  0
   51.2672   45.3282   17.0670 H   0  0  0  0  0  0  0  0  0  0  0  0
   50.7205   47.3447   19.0651 H   0  0  0  0  0  0  0  0  0  0  0  0
   50.8007   45.5043   19.1363 H   0  0  0  0  0  0  0  0  0  0  0  0
   52.4077   45.8754   20.6013 H   0  0  0  0  0  0  0  0  0  0  0  0
   53.3846   46.1422   19.0512 H   0  0  0  0  0  0  0  0  0  0  0  0
   52.2223   48.5993   19.9457 H   0  0  0  0  0  0  0  0  0  0  0  0
   53.2158   47.7916   21.2639 H   0  0  0  0  0  0  0  0  0  0  0  0
   54.2129   48.3688   18.4618 H   0  0  0  0  0  0  0  0  0  0  0  0
   54.4863   49.4124   19.9383 H   0  0  0  0  0  0  0  0  0  0  0  0
   55.3793   46.5214   19.6610 H   0  0  0  0  0  0  0  0  0  0  0  0
   56.4196   47.9835   19.3962 H   0  0  0  0  0  0  0  0  0  0  0  0
   55.9775   48.9019   23.8806 H   0  0  0  0  0  0  0  0  0  0  0  0
   54.9689   50.2242   23.2015 H   0  0  0  0  0  0  0  0  0  0  0  0
   54.3553   48.5359   23.2015 H   0  0  0  0  0  0  0  0  0  0  0  0
  1  2  1  0
  2  3  1  0
  3  4  1  0
  4  5  1  0
  5  6  1  0
  6  7  1  0
  7  8  1  0
  8  9  1  0
  9 10  1  0
 10 11  1  0
 11 12  1  0
 12 13  1  0
 13 14  1  0
 14 15  1  0
 15 16  1  0
 16 17  1  0
 17 18  1  0
 18 19  2  0
 18 20  1  0
 20 21  1  0
  1 22  1  0
  1 23  1  0
  1 24  1  0
  2 25  1  0
  2 26  1  0
  3 27  1  0
  3 28  1  0
  4 29  1  0
  4 30  1  0
  5 31  1  0
  5 32  1  0
  6 33  1  0
  6 34  1  0
  7 35  1  0
  7 36  1  0
  8 37  1  0
  8 38  1  0
  9 39  1  0
  9 40  1  0
 10 41  1  0
 10 42  1  0
 11 43  1  0
 11 44  1  0
 12 45  1  0
 12 46  1  0
 13 47  1  0
 13 48  1  0
 14 49  1  0
 14 50  1  0
 15 51  1  0
 15 52  1  0
 16 53  1  0
 16 54  1  0
 17 55  1  0
 17 56  1  0
 21 57  1  0
 21 58  1  0
 21 59  1  0
M  END
>  <meeko>  (1) 
{"is_sidechain": false}

$$$$
