
     RDKit          3D

 59 58  0  0  0  0  0  0  0  0999 V2000
   53.1640   49.0050   22.4740 C   0  0  0  0  0  0  0  0  0  0  0  0
   54.1950   48.0640   22.7740 O   0  0  0  0  0  0  0  0  0  0  0  0
   55.2350   48.0860   21.8940 C   0  0  0  0  0  0  0  0  0  0  0  0
   56.0310   49.0050   21.7610 O   0  0  0  0  0  0  0  0  0  0  0  0
   55.2770   46.8090   21.0930 C   0  0  0  0  0  0  0  0  0  0  0  0
   55.2510   47.0620   19.5880 C   0  0  0  0  0  0  0  0  0  0  0  0
   53.8430   47.3830   19.0770 C   0  0  0  0  0  0  0  0  0  0  0  0
   52.8440   46.2430   19.3010 C   0  0  0  0  0  0  0  0  0  0  0  0
   51.5630   46.3930   18.4740 C   0  0  0  0  0  0  0  0  0  0  0  0
   51.8110   46.3620   16.9620 C   0  0  0  0  0  0  0  0  0  0  0  0
   51.4790   45.0440   16.2530 C   0  0  0  0  0  0  0  0  0  0  0  0
   52.6640   44.4490   15.4870 C   0  0  0  0  0  0  0  0  0  0  0  0
   52.8880   42.9600   15.7720 C   0  0  0  0  0  0  0  0  0  0  0  0
   54.3060   42.6400   16.2560 C   0  0  0  0  0  0  0  0  0  0  0  0
   54.7670   43.5350   17.4120 C   0  0  0  0  0  0  0  0  0  0  0  0
   54.2370   43.0870   18.7770 C   0  0  0  0  0  0  0  0  0  0  0  0
   55.2330   43.3220   19.9180 C   0  0  0  0  0  0  0  0  0  0  0  0
   55.6530   42.0320   20.6280 C   0  0  0  0  0  0  0  0  0  0  0  0
   55.0480   40.7710   20.0020 C   0  0  0  0  0  0  0  0  0  0  0  0
   54.1040   40.0200   20.9430 C   0  0  0  0  0  0  0  0  0  0  0  0
   54.1280   40.6130   22.3420 C   0  0  0  0  0  0  0  0  0  0  0  0
   52.9160   41.1630   22.6180 F   0  0  0  0  0  0  0  0  0  0  0  0
   52.7383   49.3936   23.4109 H   0  0  0  0  0  0  0  0  0  0  0  0
   53.5852   49.8366   21.8900 H   0  0  0  0  0  0  0  0  0  0  0  0
   52.3742   48.5098   21.8900 H   0  0  0  0  0  0  0  0  0  0  0  0
   56.2001   46.2656   21.3435 H   0  0  0  0  0  0  0  0  0  0  0  0
   54.3813   46.2241   21.3492 H   0  0  0  0  0  0  0  0  0  0  0  0
   55.9121   47.9112   19.3605 H   0  0  0  0  0  0  0  0  0  0  0  0
   55.5900   46.1436   19.0863 H   0  0  0  0  0  0  0  0  0  0  0  0
   53.4762   48.2773   19.6021 H   0  0  0  0  0  0  0  0  0  0  0  0
   53.9182   47.5425   17.9912 H   0  0  0  0  0  0  0  0  0  0  0  0
   53.3285   45.2944   19.0265 H   0  0  0  0  0  0  0  0  0  0  0  0
   52.5534   46.2662   20.3617 H   0  0  0  0  0  0  0  0  0  0  0  0
   50.8816   45.5693   18.7331 H   0  0  0  0  0  0  0  0  0  0  0  0
   51.1335   47.3769   18.7138 H   0  0  0  0  0  0  0  0  0  0  0  0
   51.1994   47.1536   16.5044 H   0  0  0  0  0  0  0  0  0  0  0  0
   52.8949   46.5011   16.8366 H   0  0  0  0  0  0  0  0  0  0  0  0
   51.1509   44.3149   17.0085 H   0  0  0  0  0  0  0  0  0  0  0  0
   50.6925   45.2617   15.5154 H   0  0  0  0  0  0  0  0  0  0  0  0
   52.4807   44.5739   14.4096 H   0  0  0  0  0  0  0  0  0  0  0  0
   53.5665   44.9824   15.8202 H   0  0  0  0  0  0  0  0  0  0  0  0
   52.1750   42.6421   16.5470 H   0  0  0  0  0  0  0  0  0  0  0  0
   52.7391   42.4219   14.8243 H   0  0  0  0  0  0  0  0  0  0  0  0
   54.3324   41.5931   16.5927 H   0  0  0  0  0  0  0  0  0  0  0  0
   54.9876   42.8204   15.4117 H   0  0  0  0  0  0  0  0  0  0  0  0
   55.8665   43.5242   17.4442 H   0  0  0  0  0  0  0  0  0  0  0  0
   54.3664   44.5418   17.2227 H   0  0  0  0  0  0  0  0  0  0  0  0
   53.3162   43.6476   18.9957 H   0  0  0  0  0  0  0  0  0  0  0  0
   54.0569   42.0034   18.7182 H   0  0  0  0  0  0  0  0  0  0  0  0
   56.1321   43.8016   19.5038 H   0  0  0  0  0  0  0  0  0  0  0  0
   54.7319   43.9569   20.6635 H   0  0  0  0  0  0  0  0  0  0  0  0
   56.7492   41.9513   20.5858 H   0  0  0  0  0  0  0  0  0  0  0  0
   55.2813   42.0931   21.6615 H   0  0  0  0  0  0  0  0  0  0  0  0
   54.4851   41.0632   19.1033 H   0  0  0  0  0  0  0  0  0  0  0  0
   55.8813   40.0923   19.7675 H   0  0  0  0  0  0  0  0  0  0  0  0
   53.0799   40.0808   20.5460 H   0  0  0  0  0  0  0  0  0  0  0  0
   54.4372   38.9735   21.0049 H   0  0  0  0  0  0  0  0  0  0  0  0
   54.3470   39.8208   23.0731 H   0  0  0  0  0  0  0  0  0  0  0  0
   54.9062   41.3883   22.4001 H   0  0  0  0  0  0  0  0  0  0  0  0
  1  2  1  0
  2  3  1  0
  3  4  2  0
  3  5  1  0
  5  6  1  0
  6  7  1  0
  7  8  1  0
  8  9  1  0
  9 10  1  0
 10 11  1  0
 11 12  1  0
 12 13  1  0
 13 14  1  0
 14 15  1  0
 15 16  1  0
 16 17  1  0
 17 18  1  0
 18 19  1  0
 19 20  1  0
 20 21  1  0
 21 22  1  0
  1 23  1  0
  1 24  1  0
  1 25  1  0
  5 26  1  0
  5 27  1  0
  6 28  1  0
  6 29  1  0
  7 30  1  0
  7 31  1  0
  8 32  1  0
  8 33  1  0
  9 34  1  0
  9 35  1  0
 10 36  1  0
 10 37  1  0
 11 38  1  0
 11 39  1  0
 12 40  1  0
 12 41  1  0
 13 42  1  0
 13 43  1  0
 14 44  1  0
 14 45  1  0
 15 46  1  0
 15 47  1  0
 16 48  1  0
 16 49  1  0
 17 50  1  0
 17 51  1  0
 18 52  1  0
 18 53  1  0
 19 54  1  0
 19 55  1  0
 20 56  1  0
 20 57  1  0
 21 58  1  0
 21 59  1  0
M  END
>  <meeko>  (1) 
{"is_sidechain": false}

$$$$
