
     RDKit          3D

 51 50  0  0  0  0  0  0  0  0999 V2000
   53.2460   40.3490   21.0970 C   0  0  0  0  0  0  0  0  0  0  0  0
   54.4730   40.9810   21.7360 C   0  0  0  0  0  0  0  0  0  0  0  0
   55.4410   41.5920   20.7180 C   0  0  0  0  0  0  0  0  0  0  0  0
   54.8000   41.8290   19.3500 C   0  0  0  0  0  0  0  0  0  0  0  0
   54.8160   43.3000   18.9100 C   0  0  0  0  0  0  0  0  0  0  0  0
   54.8120   43.5520   17.3970 C   0  0  0  0  0  0  0  0  0  0  0  0
   53.8470   42.6770   16.6530 C   0  0  0  0  0  0  0  0  0  0  0  0
   52.8920   43.1300   15.8280 C   0  0  0  0  0  0  0  0  0  0  0  0
   52.6000   44.5700   15.4900 C   0  0  0  0  0  0  0  0  0  0  0  0
   51.4480   45.2600   16.2350 C   0  0  0  0  0  0  0  0  0  0  0  0
   51.9270   46.0940   17.4290 C   0  0  0  0  0  0  0  0  0  0  0  0
   53.0630   47.0390   17.0300 C   0  0  0  0  0  0  0  0  0  0  0  0
   53.3650   48.0400   18.1480 C   0  0  0  0  0  0  0  0  0  0  0  0
   53.7370   47.3250   19.4500 C   0  0  0  0  0  0  0  0  0  0  0  0
   55.2210   46.9820   19.5220 C   0  0  0  0  0  0  0  0  0  0  0  0
   55.9490   47.7700   20.5830 C   0  0  0  0  0  0  0  0  0  0  0  0
   56.2060   48.9640   20.4850 O   0  0  0  0  0  0  0  0  0  0  0  0
   56.2610   46.9640   21.6380 O   0  0  0  0  0  0  0  0  0  0  0  0
   55.2400   46.8290   22.6320 C   0  0  0  0  0  0  0  0  0  0  0  0
   52.5628   39.9971   21.8841 H   0  0  0  0  0  0  0  0  0  0  0  0
   52.7326   41.0948   20.4724 H   0  0  0  0  0  0  0  0  0  0  0  0
   53.5551   39.4979   20.4724 H   0  0  0  0  0  0  0  0  0  0  0  0
   54.1400   41.7748   22.4208 H   0  0  0  0  0  0  0  0  0  0  0  0
   55.0152   40.1806   22.2607 H   0  0  0  0  0  0  0  0  0  0  0  0
   55.7983   42.5560   21.1092 H   0  0  0  0  0  0  0  0  0  0  0  0
   56.2635   40.8756   20.5758 H   0  0  0  0  0  0  0  0  0  0  0  0
   55.3473   41.2364   18.6022 H   0  0  0  0  0  0  0  0  0  0  0  0
   53.7451   41.5283   19.4317 H   0  0  0  0  0  0  0  0  0  0  0  0
   53.9258   43.7873   19.3342 H   0  0  0  0  0  0  0  0  0  0  0  0
   55.7706   43.7071   19.2747 H   0  0  0  0  0  0  0  0  0  0  0  0
   54.5397   44.6027   17.2186 H   0  0  0  0  0  0  0  0  0  0  0  0
   55.8198   43.3164   17.0245 H   0  0  0  0  0  0  0  0  0  0  0  0
   53.9284   41.5891   16.7939 H   0  0  0  0  0  0  0  0  0  0  0  0
   52.2554   42.3722   15.3479 H   0  0  0  0  0  0  0  0  0  0  0  0
   53.5144   45.1468   15.6931 H   0  0  0  0  0  0  0  0  0  0  0  0
   52.2769   44.5482   14.4388 H   0  0  0  0  0  0  0  0  0  0  0  0
   50.9219   45.9226   15.5320 H   0  0  0  0  0  0  0  0  0  0  0  0
   50.7874   44.4719   16.6255 H   0  0  0  0  0  0  0  0  0  0  0  0
   51.0843   46.6887   17.8113 H   0  0  0  0  0  0  0  0  0  0  0  0
   52.3028   45.4078   18.2022 H   0  0  0  0  0  0  0  0  0  0  0  0
   53.9670   46.4472   16.8237 H   0  0  0  0  0  0  0  0  0  0  0  0
   52.7543   47.5980   16.1343 H   0  0  0  0  0  0  0  0  0  0  0  0
   54.2042   48.6803   17.8385 H   0  0  0  0  0  0  0  0  0  0  0  0
   52.4620   48.6417   18.3283 H   0  0  0  0  0  0  0  0  0  0  0  0
   53.4844   47.9797   20.2971 H   0  0  0  0  0  0  0  0  0  0  0  0
   53.1728   46.3815   19.4872 H   0  0  0  0  0  0  0  0  0  0  0  0
   55.3241   45.9101   19.7466 H   0  0  0  0  0  0  0  0  0  0  0  0
   55.6692   47.2386   18.5508 H   0  0  0  0  0  0  0  0  0  0  0  0
   55.6925   46.8888   23.6329 H   0  0  0  0  0  0  0  0  0  0  0  0
   54.5037   47.6376   22.5135 H   0  0  0  0  0  0  0  0  0  0  0  0
   54.7392   45.8568   22.5135 H   0  0  0  0  0  0  0  0  0  0  0  0
  1  2  1  0
  2  3  1  0
  3  4  1  0
  4  5  1  0
  5  6  1  0
  6  7  1  0
  7  8  2  0
  8  9  1  0
  9 10  1  0
 10 11  1  0
 11 12  1  0
 12 13  1  0
 13 14  1  0
 14 15  1  0
 15 16  1  0
 16 17  2  0
 16 18  1  0
 18 19  1  0
  1 20  1  0
  1 21  1  0
  1 22  1  0
  2 23  1  0
  2 24  1  0
  3 25  1  0
  3 26  1  0
  4 27  1  0
  4 28  1  0
  5 29  1  0
  5 30  1  0
  6 31  1  0
  6 32  1  0
  7 33  1  0
  8 34  1  0
  9 35  1  0
  9 36  1  0
 10 37  1  0
 10 38  1  0
 11 39  1  0
 11 40  1  0
 12 41  1  0
 12 42  1  0
 13 43  1  0
 13 44  1  0
 14 45  1  0
 14 46  1  0
 15 47  1  0
 15 48  1  0
 19 49  1  0
 19 50  1  0
 19 51  1  0
M  END
>  <meeko>  (1) 
{"is_sidechain": false}

$$$$
