
     RDKit          3D

 58 57  0  0  0  0  0  0  0  0999 V2000
   53.3420   40.6430   21.9800 C   0  0  0  0  0  0  0  0  0  0  0  0
   53.7840   40.6800   20.7170 C   0  0  0  0  0  0  0  0  0  0  0  0
   54.9790   41.3630   20.2240 C   0  0  0  0  0  0  0  0  0  0  0  0
   55.9010   40.6410   19.5610 C   0  0  0  0  0  0  0  0  0  0  0  0
   55.1100   42.8540   20.4900 C   0  0  0  0  0  0  0  0  0  0  0  0
   54.9170   43.8000   19.2940 C   0  0  0  0  0  0  0  0  0  0  0  0
   53.8490   43.2670   18.3320 C   0  0  0  0  0  0  0  0  0  0  0  0
   54.2200   43.4290   16.8410 C   0  0  1  0  0  0  0  0  0  0  0  0
   55.1860   42.3070   16.4440 C   0  0  0  0  0  0  0  0  0  0  0  0
   52.9680   43.4440   15.9380 C   0  0  0  0  0  0  0  0  0  0  0  0
   52.4140   44.8310   15.5900 C   0  0  0  0  0  0  0  0  0  0  0  0
   51.3980   45.4090   16.5830 C   0  0  0  0  0  0  0  0  0  0  0  0
   51.7950   46.7380   17.2650 C   0  0  2  0  0  0  0  0  0  0  0  0
   53.2890   47.0270   17.1020 C   0  0  0  0  0  0  0  0  0  0  0  0
   51.3830   46.6780   18.7540 C   0  0  0  0  0  0  0  0  0  0  0  0
   52.4350   47.2570   19.7080 C   0  0  0  0  0  0  0  0  0  0  0  0
   52.7310   46.2860   20.8570 C   0  0  0  0  0  0  0  0  0  0  0  0
   53.3580   46.9660   22.0880 C   0  0  0  0  0  0  0  0  0  0  0  0
   53.0300   48.4570   22.1640 C   0  0  0  0  0  0  0  0  0  0  0  0
   54.8770   46.7720   22.0700 C   0  0  0  0  0  0  0  0  0  0  0  0
   52.4227   40.0908   22.2250 H   0  0  0  0  0  0  0  0  0  0  0  0
   53.8981   41.1648   22.7728 H   0  0  0  0  0  0  0  0  0  0  0  0
   53.1842   40.1388   19.9705 H   0  0  0  0  0  0  0  0  0  0  0  0
   56.8101   41.1280   19.1786 H   0  0  0  0  0  0  0  0  0  0  0  0
   55.7455   39.5638   19.4015 H   0  0  0  0  0  0  0  0  0  0  0  0
   54.3598   43.1221   21.2485 H   0  0  0  0  0  0  0  0  0  0  0  0
   56.1562   42.9964   20.7985 H   0  0  0  0  0  0  0  0  0  0  0  0
   54.6053   44.7877   19.6645 H   0  0  0  0  0  0  0  0  0  0  0  0
   55.8704   43.8728   18.7502 H   0  0  0  0  0  0  0  0  0  0  0  0
   53.6987   42.1970   18.5382 H   0  0  0  0  0  0  0  0  0  0  0  0
   52.9379   43.8593   18.5029 H   0  0  0  0  0  0  0  0  0  0  0  0
   54.7147   44.4011   16.6986 H   0  0  0  0  0  0  0  0  0  0  0  0
   55.5923   41.8351   17.3507 H   0  0  0  0  0  0  0  0  0  0  0  0
   54.6488   41.5544   15.8482 H   0  0  0  0  0  0  0  0  0  0  0  0
   56.0101   42.7264   15.8482 H   0  0  0  0  0  0  0  0  0  0  0  0
   53.2248   42.9369   14.9962 H   0  0  0  0  0  0  0  0  0  0  0  0
   52.1771   42.9419   16.5146 H   0  0  0  0  0  0  0  0  0  0  0  0
   53.2624   45.5286   15.5298 H   0  0  0  0  0  0  0  0  0  0  0  0
   51.8702   44.7077   14.6418 H   0  0  0  0  0  0  0  0  0  0  0  0
   50.4562   45.5778   16.0404 H   0  0  0  0  0  0  0  0  0  0  0  0
   51.3248   44.6703   17.3948 H   0  0  0  0  0  0  0  0  0  0  0  0
   51.2644   47.5697   16.7784 H   0  0  0  0  0  0  0  0  0  0  0  0
   53.7554   47.1172   18.0941 H   0  0  0  0  0  0  0  0  0  0  0  0
   53.7633   46.2040   16.5474 H   0  0  0  0  0  0  0  0  0  0  0  0
   53.4221   47.9676   16.5474 H   0  0  0  0  0  0  0  0  0  0  0  0
   50.4498   47.2467   18.8794 H   0  0  0  0  0  0  0  0  0  0  0  0
   51.2645   45.6154   19.0124 H   0  0  0  0  0  0  0  0  0  0  0  0
   53.3631   47.4450   19.1482 H   0  0  0  0  0  0  0  0  0  0  0  0
   52.0440   48.1931   20.1332 H   0  0  0  0  0  0  0  0  0  0  0  0
   51.7873   45.8115   21.1640 H   0  0  0  0  0  0  0  0  0  0  0  0
   53.4626   45.5547   20.4830 H   0  0  0  0  0  0  0  0  0  0  0  0
   52.9247   46.4893   22.9796 H   0  0  0  0  0  0  0  0  0  0  0  0
   52.9624   48.7643   23.2180 H   0  0  0  0  0  0  0  0  0  0  0  0
   53.8229   49.0328   21.6643 H   0  0  0  0  0  0  0  0  0  0  0  0
   52.0686   48.6469   21.6643 H   0  0  0  0  0  0  0  0  0  0  0  0
   55.2528   46.7240   23.1027 H   0  0  0  0  0  0  0  0  0  0  0  0
   55.1209   45.8354   21.5472 H   0  0  0  0  0  0  0  0  0  0  0  0
   55.3484   47.6172   21.5472 H   0  0  0  0  0  0  0  0  0  0  0  0
  1  2  2  0
  2  3  1  0
  3  4  2  0
  3  5  1  0
  5  6  1  0
  6  7  1  0
  7  8  1  0
  8  9  1  0
  8 10  1  0
 10 11  1  0
 11 12  1  0
 12 13  1  0
 13 14  1  0
 13 15  1  0
 15 16  1  0
 16 17  1  0
 17 18  1  0
 18 19  1  0
 18 20  1  0
  1 21  1  0
  1 22  1  0
  2 23  1  0
  4 24  1  0
  4 25  1  0
  5 26  1  0
  5 27  1  0
  6 28  1  0
  6 29  1  0
  7 30  1  0
  7 31  1  0
  8 32  1  1
  9 33  1  0
  9 34  1  0
  9 35  1  0
 10 36  1  0
 10 37  1  0
 11 38  1  0
 11 39  1  0
 12 40  1  0
 12 41  1  0
 13 42  1  6
 14 43  1  0
 14 44  1  0
 14 45  1  0
 15 46  1  0
 15 47  1  0
 16 48  1  0
 16 49  1  0
 17 50  1  0
 17 51  1  0
 18 52  1  0
 19 53  1  0
 19 54  1  0
 19 55  1  0
 20 56  1  0
 20 57  1  0
 20 58  1  0
M  END
>  <meeko>  (1) 
{"is_sidechain": false}

$$$$
