CCCCCCCCCCCCCCCCCC(=O)O
     RDKit          3D

 56 55  0  0  0  0  0  0  0  0999 V2000
   -6.4218    1.4797    1.4222 C   0  0  0  0  0  0  0  0  0  0  0  0
   -6.8459    1.1177    0.0076 C   0  0  0  0  0  0  0  0  0  0  0  0
   -6.8758   -0.3898   -0.2557 C   0  0  0  0  0  0  0  0  0  0  0  0
   -5.5414   -1.1217   -0.0762 C   0  0  0  0  0  0  0  0  0  0  0  0
   -4.4403   -0.6088   -1.0073 C   0  0  0  0  0  0  0  0  0  0  0  0
   -3.1780   -1.4776   -0.9879 C   0  0  0  0  0  0  0  0  0  0  0  0
   -2.4767   -1.5966    0.3689 C   0  0  0  0  0  0  0  0  0  0  0  0
   -2.0514   -0.2736    1.0137 C   0  0  0  0  0  0  0  0  0  0  0  0
   -1.1335    0.6133    0.1669 C   0  0  0  0  0  0  0  0  0  0  0  0
    0.1972   -0.0543   -0.1897 C   0  0  0  0  0  0  0  0  0  0  0  0
    1.1176    0.9156   -0.9355 C   0  0  0  0  0  0  0  0  0  0  0  0
    2.4164    0.2682   -1.4246 C   0  0  0  0  0  0  0  0  0  0  0  0
    3.3342   -0.1893   -0.2878 C   0  0  0  0  0  0  0  0  0  0  0  0
    4.6653   -0.7141   -0.8317 C   0  0  0  0  0  0  0  0  0  0  0  0
    5.5802   -1.2959    0.2503 C   0  0  0  0  0  0  0  0  0  0  0  0
    5.9802   -0.3376    1.3794 C   0  0  0  0  0  0  0  0  0  0  0  0
    6.6783    0.9438    0.9253 C   0  0  0  0  0  0  0  0  0  0  0  0
    8.0247    0.6900    0.3022 C   0  0  0  0  0  0  0  0  0  0  0  0
    8.7311   -0.2940    0.4365 O   0  0  0  0  0  0  0  0  0  0  0  0
    8.4398    1.7327   -0.4438 O   0  0  0  0  0  0  0  0  0  0  0  0
   -5.3783    1.2108    1.6093 H   0  0  0  0  0  0  0  0  0  0  0  0
   -7.0489    0.9730    2.1625 H   0  0  0  0  0  0  0  0  0  0  0  0
   -6.5183    2.5589    1.5785 H   0  0  0  0  0  0  0  0  0  0  0  0
   -6.1885    1.6185   -0.7114 H   0  0  0  0  0  0  0  0  0  0  0  0
   -7.8528    1.5165   -0.1662 H   0  0  0  0  0  0  0  0  0  0  0  0
   -7.2374   -0.5563   -1.2781 H   0  0  0  0  0  0  0  0  0  0  0  0
   -7.6154   -0.8514    0.4105 H   0  0  0  0  0  0  0  0  0  0  0  0
   -5.7107   -2.1875   -0.2747 H   0  0  0  0  0  0  0  0  0  0  0  0
   -5.2208   -1.0490    0.9684 H   0  0  0  0  0  0  0  0  0  0  0  0
   -4.8218   -0.5894   -2.0359 H   0  0  0  0  0  0  0  0  0  0  0  0
   -4.1797    0.4240   -0.7540 H   0  0  0  0  0  0  0  0  0  0  0  0
   -3.4391   -2.4874   -1.3291 H   0  0  0  0  0  0  0  0  0  0  0  0
   -2.4724   -1.0848   -1.7294 H   0  0  0  0  0  0  0  0  0  0  0  0
   -1.5969   -2.2401    0.2484 H   0  0  0  0  0  0  0  0  0  0  0  0
   -3.1313   -2.1283    1.0700 H   0  0  0  0  0  0  0  0  0  0  0  0
   -1.5466   -0.5006    1.9614 H   0  0  0  0  0  0  0  0  0  0  0  0
   -2.9438    0.3039    1.2814 H   0  0  0  0  0  0  0  0  0  0  0  0
   -1.6500    0.9255   -0.7478 H   0  0  0  0  0  0  0  0  0  0  0  0
   -0.9319    1.5306    0.7344 H   0  0  0  0  0  0  0  0  0  0  0  0
    0.6819   -0.3997    0.7301 H   0  0  0  0  0  0  0  0  0  0  0  0
    0.0196   -0.9341   -0.8178 H   0  0  0  0  0  0  0  0  0  0  0  0
    0.5854    1.3142   -1.8082 H   0  0  0  0  0  0  0  0  0  0  0  0
    1.3537    1.7717   -0.2918 H   0  0  0  0  0  0  0  0  0  0  0  0
    2.1802   -0.5824   -2.0755 H   0  0  0  0  0  0  0  0  0  0  0  0
    2.9506    1.0001   -2.0431 H   0  0  0  0  0  0  0  0  0  0  0  0
    2.8477   -0.9812    0.2922 H   0  0  0  0  0  0  0  0  0  0  0  0
    3.5116    0.6530    0.3900 H   0  0  0  0  0  0  0  0  0  0  0  0
    5.1861    0.0816   -1.3764 H   0  0  0  0  0  0  0  0  0  0  0  0
    4.4643   -1.5053   -1.5652 H   0  0  0  0  0  0  0  0  0  0  0  0
    6.4838   -1.6836   -0.2350 H   0  0  0  0  0  0  0  0  0  0  0  0
    5.0839   -2.1651    0.7003 H   0  0  0  0  0  0  0  0  0  0  0  0
    6.6350   -0.8811    2.0725 H   0  0  0  0  0  0  0  0  0  0  0  0
    5.0888   -0.0663    1.9570 H   0  0  0  0  0  0  0  0  0  0  0  0
    6.0489    1.4900    0.2159 H   0  0  0  0  0  0  0  0  0  0  0  0
    6.8416    1.5912    1.7943 H   0  0  0  0  0  0  0  0  0  0  0  0
    9.3210    1.4536   -0.7701 H   0  0  0  0  0  0  0  0  0  0  0  0
  1  2  1  0
  2  3  1  0
  3  4  1  0
  4  5  1  0
  5  6  1  0
  6  7  1  0
  7  8  1  0
  8  9  1  0
  9 10  1  0
 10 11  1  0
 11 12  1  0
 12 13  1  0
 13 14  1  0
 14 15  1  0
 15 16  1  0
 16 17  1  0
 17 18  1  0
 18 19  2  0
 18 20  1  0
  1 21  1  0
  1 22  1  0
  1 23  1  0
  2 24  1  0
  2 25  1  0
  3 26  1  0
  3 27  1  0
  4 28  1  0
  4 29  1  0
  5 30  1  0
  5 31  1  0
  6 32  1  0
  6 33  1  0
  7 34  1  0
  7 35  1  0
  8 36  1  0
  8 37  1  0
  9 38  1  0
  9 39  1  0
 10 40  1  0
 10 41  1  0
 11 42  1  0
 11 43  1  0
 12 44  1  0
 12 45  1  0
 13 46  1  0
 13 47  1  0
 14 48  1  0
 14 49  1  0
 15 50  1  0
 15 51  1  0
 16 52  1  0
 16 53  1  0
 17 54  1  0
 17 55  1  0
 20 56  1  0
M  END
$$$$
