CCCCCCCCCCCCCC(=O)O
     RDKit          3D

 44 43  0  0  0  0  0  0  0  0999 V2000
   -5.5567    0.8300    0.4925 C   0  0  0  0  0  0  0  0  0  0  0  0
   -5.5569   -0.5830   -0.0700 C   0  0  0  0  0  0  0  0  0  0  0  0
   -4.1844   -1.2627   -0.0453 C   0  0  0  0  0  0  0  0  0  0  0  0
   -3.3585   -1.0982   -1.3257 C   0  0  0  0  0  0  0  0  0  0  0  0
   -2.8437    0.3087   -1.6344 C   0  0  0  0  0  0  0  0  0  0  0  0
   -1.9766    0.9534   -0.5486 C   0  0  0  0  0  0  0  0  0  0  0  0
   -0.7015    0.1640   -0.2401 C   0  0  0  0  0  0  0  0  0  0  0  0
    0.1813    0.9130    0.7618 C   0  0  0  0  0  0  0  0  0  0  0  0
    1.4135    0.1171    1.2017 C   0  0  0  0  0  0  0  0  0  0  0  0
    2.4106   -0.1376    0.0679 C   0  0  0  0  0  0  0  0  0  0  0  0
    3.6745   -0.8262    0.5904 C   0  0  0  0  0  0  0  0  0  0  0  0
    4.6533   -1.2338   -0.5178 C   0  0  0  0  0  0  0  0  0  0  0  0
    5.2403   -0.0738   -1.3216 C   0  0  0  0  0  0  0  0  0  0  0  0
    6.1388    0.8132   -0.5020 C   0  0  0  0  0  0  0  0  0  0  0  0
    6.6936    0.5405    0.5482 O   0  0  0  0  0  0  0  0  0  0  0  0
    6.3283    2.0141   -1.0834 O   0  0  0  0  0  0  0  0  0  0  0  0
   -5.1437    0.8492    1.5061 H   0  0  0  0  0  0  0  0  0  0  0  0
   -4.9796    1.5187   -0.1274 H   0  0  0  0  0  0  0  0  0  0  0  0
   -6.5816    1.2124    0.5411 H   0  0  0  0  0  0  0  0  0  0  0  0
   -6.2411   -1.1785    0.5475 H   0  0  0  0  0  0  0  0  0  0  0  0
   -5.9727   -0.5829   -1.0838 H   0  0  0  0  0  0  0  0  0  0  0  0
   -4.3595   -2.3404    0.0741 H   0  0  0  0  0  0  0  0  0  0  0  0
   -3.6103   -0.9559    0.8357 H   0  0  0  0  0  0  0  0  0  0  0  0
   -2.5046   -1.7847   -1.2734 H   0  0  0  0  0  0  0  0  0  0  0  0
   -3.9573   -1.4406   -2.1794 H   0  0  0  0  0  0  0  0  0  0  0  0
   -3.6909    0.9672   -1.8539 H   0  0  0  0  0  0  0  0  0  0  0  0
   -2.2605    0.2612   -2.5633 H   0  0  0  0  0  0  0  0  0  0  0  0
   -1.7001    1.9591   -0.8897 H   0  0  0  0  0  0  0  0  0  0  0  0
   -2.5573    1.0895    0.3700 H   0  0  0  0  0  0  0  0  0  0  0  0
   -0.9590   -0.8174    0.1735 H   0  0  0  0  0  0  0  0  0  0  0  0
   -0.1512   -0.0058   -1.1720 H   0  0  0  0  0  0  0  0  0  0  0  0
   -0.4108    1.1468    1.6554 H   0  0  0  0  0  0  0  0  0  0  0  0
    0.4973    1.8718    0.3330 H   0  0  0  0  0  0  0  0  0  0  0  0
    1.9151    0.6783    2.0000 H   0  0  0  0  0  0  0  0  0  0  0  0
    1.0968   -0.8379    1.6384 H   0  0  0  0  0  0  0  0  0  0  0  0
    1.9511   -0.7675   -0.7016 H   0  0  0  0  0  0  0  0  0  0  0  0
    2.6701    0.8182   -0.4002 H   0  0  0  0  0  0  0  0  0  0  0  0
    4.1756   -0.1753    1.3160 H   0  0  0  0  0  0  0  0  0  0  0  0
    3.3857   -1.7339    1.1354 H   0  0  0  0  0  0  0  0  0  0  0  0
    4.1415   -1.9146   -1.2092 H   0  0  0  0  0  0  0  0  0  0  0  0
    5.4692   -1.8091   -0.0626 H   0  0  0  0  0  0  0  0  0  0  0  0
    5.8456   -0.4761   -2.1420 H   0  0  0  0  0  0  0  0  0  0  0  0
    4.4406    0.5298   -1.7615 H   0  0  0  0  0  0  0  0  0  0  0  0
    6.9358    2.4796   -0.4711 H   0  0  0  0  0  0  0  0  0  0  0  0
  1  2  1  0
  2  3  1  0
  3  4  1  0
  4  5  1  0
  5  6  1  0
  6  7  1  0
  7  8  1  0
  8  9  1  0
  9 10  1  0
 10 11  1  0
 11 12  1  0
 12 13  1  0
 13 14  1  0
 14 15  2  0
 14 16  1  0
  1 17  1  0
  1 18  1  0
  1 19  1  0
  2 20  1  0
  2 21  1  0
  3 22  1  0
  3 23  1  0
  4 24  1  0
  4 25  1  0
  5 26  1  0
  5 27  1  0
  6 28  1  0
  6 29  1  0
  7 30  1  0
  7 31  1  0
  8 32  1  0
  8 33  1  0
  9 34  1  0
  9 35  1  0
 10 36  1  0
 10 37  1  0
 11 38  1  0
 11 39  1  0
 12 40  1  0
 12 41  1  0
 13 42  1  0
 13 43  1  0
 16 44  1  0
M  END
$$$$
