CCCCC/C=C\C/C=C\C/C=C\CCCCC(=O)O
     RDKit          3D

 50 49  0  0  0  0  0  0  0  0999 V2000
    5.1648   -0.4385   -1.0435 C   0  0  0  0  0  0  0  0  0  0  0  0
    5.2962   -1.2906    0.2090 C   0  0  0  0  0  0  0  0  0  0  0  0
    5.4939   -0.4789    1.4902 C   0  0  0  0  0  0  0  0  0  0  0  0
    4.4022    0.5378    1.8455 C   0  0  0  0  0  0  0  0  0  0  0  0
    3.0852   -0.0587    2.3540 C   0  0  0  0  0  0  0  0  0  0  0  0
    2.2039   -0.6420    1.2884 C   0  0  0  0  0  0  0  0  0  0  0  0
    1.3127    0.0181    0.5299 C   0  0  0  0  0  0  0  0  0  0  0  0
    1.0137    1.4900    0.5465 C   0  0  0  0  0  0  0  0  0  0  0  0
    1.3219    2.1109   -0.7860 C   0  0  0  0  0  0  0  0  0  0  0  0
    0.4559    2.5969   -1.6920 C   0  0  0  0  0  0  0  0  0  0  0  0
   -1.0421    2.6436   -1.6019 C   0  0  0  0  0  0  0  0  0  0  0  0
   -1.6741    1.7431   -2.6246 C   0  0  0  0  0  0  0  0  0  0  0  0
   -2.3341    0.5929   -2.4083 C   0  0  0  0  0  0  0  0  0  0  0  0
   -2.5569   -0.0966   -1.0926 C   0  0  0  0  0  0  0  0  0  0  0  0
   -4.0273   -0.0316   -0.6752 C   0  0  0  0  0  0  0  0  0  0  0  0
   -4.2544   -0.7441    0.6622 C   0  0  0  0  0  0  0  0  0  0  0  0
   -5.7116   -0.6796    1.1185 C   0  0  0  0  0  0  0  0  0  0  0  0
   -6.6181   -1.5730    0.3139 C   0  0  0  0  0  0  0  0  0  0  0  0
   -6.2957   -2.4539   -0.4639 O   0  0  0  0  0  0  0  0  0  0  0  0
   -7.9189   -1.3214    0.5614 O   0  0  0  0  0  0  0  0  0  0  0  0
    4.2439    0.1506   -1.0364 H   0  0  0  0  0  0  0  0  0  0  0  0
    6.0132    0.2456   -1.1442 H   0  0  0  0  0  0  0  0  0  0  0  0
    5.1396   -1.0786   -1.9314 H   0  0  0  0  0  0  0  0  0  0  0  0
    4.4315   -1.9536    0.2983 H   0  0  0  0  0  0  0  0  0  0  0  0
    6.1666   -1.9474    0.0868 H   0  0  0  0  0  0  0  0  0  0  0  0
    6.4421    0.0672    1.4000 H   0  0  0  0  0  0  0  0  0  0  0  0
    5.6248   -1.1734    2.3293 H   0  0  0  0  0  0  0  0  0  0  0  0
    4.2216    1.2228    1.0098 H   0  0  0  0  0  0  0  0  0  0  0  0
    4.8031    1.1605    2.6567 H   0  0  0  0  0  0  0  0  0  0  0  0
    3.2909   -0.8333    3.1032 H   0  0  0  0  0  0  0  0  0  0  0  0
    2.5318    0.7202    2.8929 H   0  0  0  0  0  0  0  0  0  0  0  0
    2.2910   -1.7176    1.1423 H   0  0  0  0  0  0  0  0  0  0  0  0
    0.7344   -0.5605   -0.1907 H   0  0  0  0  0  0  0  0  0  0  0  0
   -0.0336    1.6248    0.8307 H   0  0  0  0  0  0  0  0  0  0  0  0
    1.6008    2.0167    1.3058 H   0  0  0  0  0  0  0  0  0  0  0  0
    2.3830    2.1570   -1.0308 H   0  0  0  0  0  0  0  0  0  0  0  0
    0.8740    3.0073   -2.6109 H   0  0  0  0  0  0  0  0  0  0  0  0
   -1.4034    2.4238   -0.5950 H   0  0  0  0  0  0  0  0  0  0  0  0
   -1.3665    3.6721   -1.8036 H   0  0  0  0  0  0  0  0  0  0  0  0
   -1.5910    2.0870   -3.6552 H   0  0  0  0  0  0  0  0  0  0  0  0
   -2.7418    0.0738   -3.2757 H   0  0  0  0  0  0  0  0  0  0  0  0
   -1.9288    0.3271   -0.3035 H   0  0  0  0  0  0  0  0  0  0  0  0
   -2.2478   -1.1437   -1.1988 H   0  0  0  0  0  0  0  0  0  0  0  0
   -4.6513   -0.4861   -1.4541 H   0  0  0  0  0  0  0  0  0  0  0  0
   -4.3396    1.0168   -0.5868 H   0  0  0  0  0  0  0  0  0  0  0  0
   -3.6301   -0.2671    1.4279 H   0  0  0  0  0  0  0  0  0  0  0  0
   -3.9266   -1.7881    0.5874 H   0  0  0  0  0  0  0  0  0  0  0  0
   -5.7753   -1.0083    2.1619 H   0  0  0  0  0  0  0  0  0  0  0  0
   -6.0774    0.3511    1.0549 H   0  0  0  0  0  0  0  0  0  0  0  0
   -8.3960   -1.9659   -0.0023 H   0  0  0  0  0  0  0  0  0  0  0  0
  1  2  1  0
  2  3  1  0
  3  4  1  0
  4  5  1  0
  5  6  1  0
  6  7  2  0
  7  8  1  0
  8  9  1  0
  9 10  2  0
 10 11  1  0
 11 12  1  0
 12 13  2  0
 13 14  1  0
 14 15  1  0
 15 16  1  0
 16 17  1  0
 17 18  1  0
 18 19  2  0
 18 20  1  0
  1 21  1  0
  1 22  1  0
  1 23  1  0
  2 24  1  0
  2 25  1  0
  3 26  1  0
  3 27  1  0
  4 28  1  0
  4 29  1  0
  5 30  1  0
  5 31  1  0
  6 32  1  0
  7 33  1  0
  8 34  1  0
  8 35  1  0
  9 36  1  0
 10 37  1  0
 11 38  1  0
 11 39  1  0
 12 40  1  0
 13 41  1  0
 14 42  1  0
 14 43  1  0
 15 44  1  0
 15 45  1  0
 16 46  1  0
 16 47  1  0
 17 48  1  0
 17 49  1  0
 20 50  1  0
M  END
$$$$
