CCCCCCCCCCCCC(=O)OC
     RDKit          3D

 44 43  0  0  0  0  0  0  0  0999 V2000
   -7.3732   -0.4417   -0.0585 C   0  0  0  0  0  0  0  0  0  0  0  0
   -5.8532   -0.4979   -0.0403 C   0  0  0  0  0  0  0  0  0  0  0  0
   -5.2415    0.8759   -0.3174 C   0  0  0  0  0  0  0  0  0  0  0  0
   -3.7129    0.8512   -0.4189 C   0  0  0  0  0  0  0  0  0  0  0  0
   -3.0255    0.4769    0.8968 C   0  0  0  0  0  0  0  0  0  0  0  0
   -1.5058    0.6693    0.8619 C   0  0  0  0  0  0  0  0  0  0  0  0
   -0.7980   -0.2647   -0.1224 C   0  0  0  0  0  0  0  0  0  0  0  0
    0.7230   -0.1103   -0.0364 C   0  0  0  0  0  0  0  0  0  0  0  0
    1.4305   -1.0389   -1.0260 C   0  0  0  0  0  0  0  0  0  0  0  0
    2.9570   -1.0099   -0.9017 C   0  0  0  0  0  0  0  0  0  0  0  0
    3.5728    0.3353   -1.3016 C   0  0  0  0  0  0  0  0  0  0  0  0
    5.1018    0.2991   -1.2966 C   0  0  0  0  0  0  0  0  0  0  0  0
    5.6897    0.2472    0.0955 C   0  0  0  0  0  0  0  0  0  0  0  0
    5.0891    0.4971    1.1306 O   0  0  0  0  0  0  0  0  0  0  0  0
    7.0080   -0.0936    0.0183 O   0  0  0  0  0  0  0  0  0  0  0  0
    7.6655   -0.1565    1.2845 C   0  0  0  0  0  0  0  0  0  0  0  0
   -7.7915   -1.4325    0.1450 H   0  0  0  0  0  0  0  0  0  0  0  0
   -7.7424   -0.1116   -1.0348 H   0  0  0  0  0  0  0  0  0  0  0  0
   -7.7491    0.2490    0.7030 H   0  0  0  0  0  0  0  0  0  0  0  0
   -5.5286   -0.8693    0.9375 H   0  0  0  0  0  0  0  0  0  0  0  0
   -5.5113   -1.2173   -0.7934 H   0  0  0  0  0  0  0  0  0  0  0  0
   -5.6404    1.2617   -1.2639 H   0  0  0  0  0  0  0  0  0  0  0  0
   -5.5470    1.5823    0.4641 H   0  0  0  0  0  0  0  0  0  0  0  0
   -3.4184    0.1537   -1.2112 H   0  0  0  0  0  0  0  0  0  0  0  0
   -3.3751    1.8475   -0.7300 H   0  0  0  0  0  0  0  0  0  0  0  0
   -3.2483   -0.5640    1.1570 H   0  0  0  0  0  0  0  0  0  0  0  0
   -3.4301    1.1005    1.7035 H   0  0  0  0  0  0  0  0  0  0  0  0
   -1.2727    1.7125    0.6161 H   0  0  0  0  0  0  0  0  0  0  0  0
   -1.1156    0.4886    1.8713 H   0  0  0  0  0  0  0  0  0  0  0  0
   -1.1221   -0.0471   -1.1462 H   0  0  0  0  0  0  0  0  0  0  0  0
   -1.0746   -1.3037    0.0935 H   0  0  0  0  0  0  0  0  0  0  0  0
    1.0580   -0.3362    0.9831 H   0  0  0  0  0  0  0  0  0  0  0  0
    0.9883    0.9324   -0.2431 H   0  0  0  0  0  0  0  0  0  0  0  0
    1.0939   -2.0687   -0.8530 H   0  0  0  0  0  0  0  0  0  0  0  0
    1.1393   -0.7801   -2.0513 H   0  0  0  0  0  0  0  0  0  0  0  0
    3.3657   -1.7954   -1.5495 H   0  0  0  0  0  0  0  0  0  0  0  0
    3.2424   -1.2690    0.1244 H   0  0  0  0  0  0  0  0  0  0  0  0
    3.2209    1.1294   -0.6340 H   0  0  0  0  0  0  0  0  0  0  0  0
    3.2360    0.5931   -2.3131 H   0  0  0  0  0  0  0  0  0  0  0  0
    5.4841    1.2076   -1.7756 H   0  0  0  0  0  0  0  0  0  0  0  0
    5.4533   -0.5680   -1.8669 H   0  0  0  0  0  0  0  0  0  0  0  0
    8.7066   -0.4429    1.1116 H   0  0  0  0  0  0  0  0  0  0  0  0
    7.1992   -0.9143    1.9218 H   0  0  0  0  0  0  0  0  0  0  0  0
    7.6523    0.8233    1.7722 H   0  0  0  0  0  0  0  0  0  0  0  0
  1  2  1  0
  2  3  1  0
  3  4  1  0
  4  5  1  0
  5  6  1  0
  6  7  1  0
  7  8  1  0
  8  9  1  0
  9 10  1  0
 10 11  1  0
 11 12  1  0
 12 13  1  0
 13 14  2  0
 13 15  1  0
 15 16  1  0
  1 17  1  0
  1 18  1  0
  1 19  1  0
  2 20  1  0
  2 21  1  0
  3 22  1  0
  3 23  1  0
  4 24  1  0
  4 25  1  0
  5 26  1  0
  5 27  1  0
  6 28  1  0
  6 29  1  0
  7 30  1  0
  7 31  1  0
  8 32  1  0
  8 33  1  0
  9 34  1  0
  9 35  1  0
 10 36  1  0
 10 37  1  0
 11 38  1  0
 11 39  1  0
 12 40  1  0
 12 41  1  0
 16 42  1  0
 16 43  1  0
 16 44  1  0
M  END
$$$$
