CCCCCCCCCCCCCC(=O)OC
     RDKit          3D

 47 46  0  0  0  0  0  0  0  0999 V2000
   -6.9403   -2.2924   -0.7654 C   0  0  0  0  0  0  0  0  0  0  0  0
   -6.6148   -0.8077   -0.7301 C   0  0  0  0  0  0  0  0  0  0  0  0
   -5.1734   -0.5605   -0.2826 C   0  0  0  0  0  0  0  0  0  0  0  0
   -4.8518    0.9353   -0.2529 C   0  0  0  0  0  0  0  0  0  0  0  0
   -3.4547    1.2460    0.2945 C   0  0  0  0  0  0  0  0  0  0  0  0
   -2.3259    0.7127   -0.5916 C   0  0  0  0  0  0  0  0  0  0  0  0
   -0.9383    1.2176   -0.1788 C   0  0  0  0  0  0  0  0  0  0  0  0
   -0.4862    0.6966    1.1880 C   0  0  0  0  0  0  0  0  0  0  0  0
    0.8999    1.2018    1.6025 C   0  0  0  0  0  0  0  0  0  0  0  0
    2.0346    0.6583    0.7299 C   0  0  0  0  0  0  0  0  0  0  0  0
    3.4003    1.0936    1.2683 C   0  0  0  0  0  0  0  0  0  0  0  0
    4.5676    0.6742    0.3717 C   0  0  0  0  0  0  0  0  0  0  0  0
    4.7500   -0.8366    0.2831 C   0  0  0  0  0  0  0  0  0  0  0  0
    5.9902   -1.1707   -0.5049 C   0  0  0  0  0  0  0  0  0  0  0  0
    6.0046   -1.3665   -1.7125 O   0  0  0  0  0  0  0  0  0  0  0  0
    7.0799   -1.1933    0.3109 O   0  0  0  0  0  0  0  0  0  0  0  0
    8.3035   -1.4840   -0.3653 C   0  0  0  0  0  0  0  0  0  0  0  0
   -6.2850   -2.8213   -1.4649 H   0  0  0  0  0  0  0  0  0  0  0  0
   -7.9751   -2.4461   -1.0871 H   0  0  0  0  0  0  0  0  0  0  0  0
   -6.8218   -2.7436    0.2249 H   0  0  0  0  0  0  0  0  0  0  0  0
   -7.3088   -0.3042   -0.0472 H   0  0  0  0  0  0  0  0  0  0  0  0
   -6.7733   -0.3808   -1.7273 H   0  0  0  0  0  0  0  0  0  0  0  0
   -5.0201   -0.9898    0.7148 H   0  0  0  0  0  0  0  0  0  0  0  0
   -4.4923   -1.0777   -0.9677 H   0  0  0  0  0  0  0  0  0  0  0  0
   -4.9541    1.3566   -1.2605 H   0  0  0  0  0  0  0  0  0  0  0  0
   -5.5877    1.4479    0.3791 H   0  0  0  0  0  0  0  0  0  0  0  0
   -3.3685    0.8346    1.3064 H   0  0  0  0  0  0  0  0  0  0  0  0
   -3.3575    2.3349    0.3839 H   0  0  0  0  0  0  0  0  0  0  0  0
   -2.5070    1.0244   -1.6278 H   0  0  0  0  0  0  0  0  0  0  0  0
   -2.3246   -0.3832   -0.5847 H   0  0  0  0  0  0  0  0  0  0  0  0
   -0.2276    0.8953   -0.9480 H   0  0  0  0  0  0  0  0  0  0  0  0
   -0.9306    2.3142   -0.1795 H   0  0  0  0  0  0  0  0  0  0  0  0
   -1.1982    1.0188    1.9561 H   0  0  0  0  0  0  0  0  0  0  0  0
   -0.4934   -0.4000    1.1886 H   0  0  0  0  0  0  0  0  0  0  0  0
    1.0750    0.8993    2.6427 H   0  0  0  0  0  0  0  0  0  0  0  0
    0.9114    2.2984    1.5867 H   0  0  0  0  0  0  0  0  0  0  0  0
    1.9736   -0.4353    0.7025 H   0  0  0  0  0  0  0  0  0  0  0  0
    1.9245    1.0193   -0.2984 H   0  0  0  0  0  0  0  0  0  0  0  0
    3.5480    0.6879    2.2766 H   0  0  0  0  0  0  0  0  0  0  0  0
    3.4164    2.1866    1.3622 H   0  0  0  0  0  0  0  0  0  0  0  0
    5.4857    1.1277    0.7665 H   0  0  0  0  0  0  0  0  0  0  0  0
    4.4313    1.0906   -0.6342 H   0  0  0  0  0  0  0  0  0  0  0  0
    4.8244   -1.2906    1.2780 H   0  0  0  0  0  0  0  0  0  0  0  0
    3.9016   -1.3159   -0.2172 H   0  0  0  0  0  0  0  0  0  0  0  0
    8.5198   -0.7150   -1.1135 H   0  0  0  0  0  0  0  0  0  0  0  0
    8.2604   -2.4750   -0.8278 H   0  0  0  0  0  0  0  0  0  0  0  0
    9.1083   -1.4824    0.3750 H   0  0  0  0  0  0  0  0  0  0  0  0
  1  2  1  0
  2  3  1  0
  3  4  1  0
  4  5  1  0
  5  6  1  0
  6  7  1  0
  7  8  1  0
  8  9  1  0
  9 10  1  0
 10 11  1  0
 11 12  1  0
 12 13  1  0
 13 14  1  0
 14 15  2  0
 14 16  1  0
 16 17  1  0
  1 18  1  0
  1 19  1  0
  1 20  1  0
  2 21  1  0
  2 22  1  0
  3 23  1  0
  3 24  1  0
  4 25  1  0
  4 26  1  0
  5 27  1  0
  5 28  1  0
  6 29  1  0
  6 30  1  0
  7 31  1  0
  7 32  1  0
  8 33  1  0
  8 34  1  0
  9 35  1  0
  9 36  1  0
 10 37  1  0
 10 38  1  0
 11 39  1  0
 11 40  1  0
 12 41  1  0
 12 42  1  0
 13 43  1  0
 13 44  1  0
 17 45  1  0
 17 46  1  0
 17 47  1  0
M  END
$$$$
