CCCCCC/C=C\C=C\CCCCCCCC(=O)OC
     RDKit          3D

 55 54  0  0  0  0  0  0  0  0999 V2000
   -7.7696    1.1823    2.3281 C   0  0  0  0  0  0  0  0  0  0  0  0
   -7.9967    1.5321    0.8655 C   0  0  0  0  0  0  0  0  0  0  0  0
   -6.7398    1.3995    0.0028 C   0  0  0  0  0  0  0  0  0  0  0  0
   -6.2379   -0.0416   -0.1207 C   0  0  0  0  0  0  0  0  0  0  0  0
   -5.0434   -0.1299   -1.0769 C   0  0  0  0  0  0  0  0  0  0  0  0
   -4.5489   -1.5622   -1.3024 C   0  0  0  0  0  0  0  0  0  0  0  0
   -3.9858   -2.1995   -0.0622 C   0  0  0  0  0  0  0  0  0  0  0  0
   -2.6961   -2.3517    0.2783 C   0  0  0  0  0  0  0  0  0  0  0  0
   -1.5536   -1.8898   -0.4748 C   0  0  0  0  0  0  0  0  0  0  0  0
   -0.2899   -2.0972   -0.0737 C   0  0  0  0  0  0  0  0  0  0  0  0
    0.9157   -1.6263   -0.8385 C   0  0  0  0  0  0  0  0  0  0  0  0
    1.7290   -0.6209   -0.0195 C   0  0  0  0  0  0  0  0  0  0  0  0
    2.9123   -0.0228   -0.7886 C   0  0  0  0  0  0  0  0  0  0  0  0
    4.0074   -1.0440   -1.1061 C   0  0  0  0  0  0  0  0  0  0  0  0
    5.1877   -0.4494   -1.8823 C   0  0  0  0  0  0  0  0  0  0  0  0
    5.9492    0.6799   -1.1825 C   0  0  0  0  0  0  0  0  0  0  0  0
    6.5409    0.2712    0.1656 C   0  0  0  0  0  0  0  0  0  0  0  0
    7.3992    1.3652    0.7583 C   0  0  0  0  0  0  0  0  0  0  0  0
    7.5556    2.4819    0.2862 O   0  0  0  0  0  0  0  0  0  0  0  0
    7.9691    0.9160    1.9133 O   0  0  0  0  0  0  0  0  0  0  0  0
    8.8009    1.8788    2.5619 C   0  0  0  0  0  0  0  0  0  0  0  0
   -6.9517    1.7736    2.7515 H   0  0  0  0  0  0  0  0  0  0  0  0
   -8.6741    1.3910    2.9086 H   0  0  0  0  0  0  0  0  0  0  0  0
   -7.5331    0.1219    2.4554 H   0  0  0  0  0  0  0  0  0  0  0  0
   -8.7965    0.9019    0.4595 H   0  0  0  0  0  0  0  0  0  0  0  0
   -8.3497    2.5687    0.8068 H   0  0  0  0  0  0  0  0  0  0  0  0
   -6.9701    1.7864   -0.9977 H   0  0  0  0  0  0  0  0  0  0  0  0
   -5.9444    2.0346    0.4116 H   0  0  0  0  0  0  0  0  0  0  0  0
   -7.0487   -0.6825   -0.4873 H   0  0  0  0  0  0  0  0  0  0  0  0
   -5.9464   -0.4150    0.8664 H   0  0  0  0  0  0  0  0  0  0  0  0
   -5.3331    0.2881   -2.0491 H   0  0  0  0  0  0  0  0  0  0  0  0
   -4.2215    0.4911   -0.6991 H   0  0  0  0  0  0  0  0  0  0  0  0
   -5.3754   -2.1854   -1.6659 H   0  0  0  0  0  0  0  0  0  0  0  0
   -3.8099   -1.5574   -2.1107 H   0  0  0  0  0  0  0  0  0  0  0  0
   -4.7303   -2.5964    0.6274 H   0  0  0  0  0  0  0  0  0  0  0  0
   -2.4808   -2.8588    1.2186 H   0  0  0  0  0  0  0  0  0  0  0  0
   -1.7341   -1.3446   -1.3971 H   0  0  0  0  0  0  0  0  0  0  0  0
   -0.0912   -2.6414    0.8474 H   0  0  0  0  0  0  0  0  0  0  0  0
    0.6182   -1.1717   -1.7911 H   0  0  0  0  0  0  0  0  0  0  0  0
    1.5245   -2.5045   -1.0792 H   0  0  0  0  0  0  0  0  0  0  0  0
    2.0927   -1.0936    0.9017 H   0  0  0  0  0  0  0  0  0  0  0  0
    1.0740    0.2040    0.2902 H   0  0  0  0  0  0  0  0  0  0  0  0
    2.5532    0.4382   -1.7165 H   0  0  0  0  0  0  0  0  0  0  0  0
    3.3305    0.7828   -0.1747 H   0  0  0  0  0  0  0  0  0  0  0  0
    4.3627   -1.5095   -0.1799 H   0  0  0  0  0  0  0  0  0  0  0  0
    3.5893   -1.8526   -1.7165 H   0  0  0  0  0  0  0  0  0  0  0  0
    4.8250   -0.0760   -2.8482 H   0  0  0  0  0  0  0  0  0  0  0  0
    5.8918   -1.2593   -2.1115 H   0  0  0  0  0  0  0  0  0  0  0  0
    6.7591    1.0062   -1.8480 H   0  0  0  0  0  0  0  0  0  0  0  0
    5.2992    1.5536   -1.0558 H   0  0  0  0  0  0  0  0  0  0  0  0
    5.7418    0.0524    0.8813 H   0  0  0  0  0  0  0  0  0  0  0  0
    7.1648   -0.6205    0.0378 H   0  0  0  0  0  0  0  0  0  0  0  0
    9.2060    1.4206    3.4683 H   0  0  0  0  0  0  0  0  0  0  0  0
    9.6364    2.1622    1.9141 H   0  0  0  0  0  0  0  0  0  0  0  0
    8.2166    2.7583    2.8499 H   0  0  0  0  0  0  0  0  0  0  0  0
  1  2  1  0
  2  3  1  0
  3  4  1  0
  4  5  1  0
  5  6  1  0
  6  7  1  0
  7  8  2  0
  8  9  1  0
  9 10  2  0
 10 11  1  0
 11 12  1  0
 12 13  1  0
 13 14  1  0
 14 15  1  0
 15 16  1  0
 16 17  1  0
 17 18  1  0
 18 19  2  0
 18 20  1  0
 20 21  1  0
  1 22  1  0
  1 23  1  0
  1 24  1  0
  2 25  1  0
  2 26  1  0
  3 27  1  0
  3 28  1  0
  4 29  1  0
  4 30  1  0
  5 31  1  0
  5 32  1  0
  6 33  1  0
  6 34  1  0
  7 35  1  0
  8 36  1  0
  9 37  1  0
 10 38  1  0
 11 39  1  0
 11 40  1  0
 12 41  1  0
 12 42  1  0
 13 43  1  0
 13 44  1  0
 14 45  1  0
 14 46  1  0
 15 47  1  0
 15 48  1  0
 16 49  1  0
 16 50  1  0
 17 51  1  0
 17 52  1  0
 21 53  1  0
 21 54  1  0
 21 55  1  0
M  END
$$$$
