CCCCCCCCCCCCCCC(=O)O
     RDKit          3D

 47 46  0  0  0  0  0  0  0  0999 V2000
    6.2046    1.4172    1.1788 C   0  0  0  0  0  0  0  0  0  0  0  0
    5.9295    0.1935    0.3189 C   0  0  0  0  0  0  0  0  0  0  0  0
    5.0454   -0.8491    1.0066 C   0  0  0  0  0  0  0  0  0  0  0  0
    3.6485   -0.3691    1.4142 C   0  0  0  0  0  0  0  0  0  0  0  0
    2.7875    0.2166    0.2898 C   0  0  0  0  0  0  0  0  0  0  0  0
    2.4955   -0.7808   -0.8336 C   0  0  0  0  0  0  0  0  0  0  0  0
    1.6420   -0.1936   -1.9631 C   0  0  0  0  0  0  0  0  0  0  0  0
    0.2536    0.3142   -1.5624 C   0  0  0  0  0  0  0  0  0  0  0  0
   -0.6328   -0.7637   -0.9354 C   0  0  0  0  0  0  0  0  0  0  0  0
   -2.0433   -0.2328   -0.6646 C   0  0  0  0  0  0  0  0  0  0  0  0
   -2.9270   -1.3085   -0.0290 C   0  0  0  0  0  0  0  0  0  0  0  0
   -4.3818   -0.8673    0.1585 C   0  0  0  0  0  0  0  0  0  0  0  0
   -4.5462    0.2616    1.1820 C   0  0  0  0  0  0  0  0  0  0  0  0
   -6.0145    0.5932    1.4516 C   0  0  0  0  0  0  0  0  0  0  0  0
   -6.6738    1.3114    0.3040 C   0  0  0  0  0  0  0  0  0  0  0  0
   -6.1346    1.8358   -0.6547 O   0  0  0  0  0  0  0  0  0  0  0  0
   -8.0134    1.3588    0.4453 O   0  0  0  0  0  0  0  0  0  0  0  0
    5.2918    1.9905    1.3650 H   0  0  0  0  0  0  0  0  0  0  0  0
    6.9146    2.0796    0.6732 H   0  0  0  0  0  0  0  0  0  0  0  0
    6.6367    1.1307    2.1429 H   0  0  0  0  0  0  0  0  0  0  0  0
    6.8877   -0.2786    0.0698 H   0  0  0  0  0  0  0  0  0  0  0  0
    5.4840    0.5060   -0.6317 H   0  0  0  0  0  0  0  0  0  0  0  0
    5.5594   -1.2095    1.9068 H   0  0  0  0  0  0  0  0  0  0  0  0
    4.9537   -1.7204    0.3474 H   0  0  0  0  0  0  0  0  0  0  0  0
    3.1130   -1.2143    1.8652 H   0  0  0  0  0  0  0  0  0  0  0  0
    3.7427    0.3826    2.2071 H   0  0  0  0  0  0  0  0  0  0  0  0
    3.2636    1.1133   -0.1223 H   0  0  0  0  0  0  0  0  0  0  0  0
    1.8442    0.5467    0.7400 H   0  0  0  0  0  0  0  0  0  0  0  0
    3.4385   -1.1180   -1.2789 H   0  0  0  0  0  0  0  0  0  0  0  0
    2.0126   -1.6743   -0.4222 H   0  0  0  0  0  0  0  0  0  0  0  0
    2.1919    0.6341   -2.4284 H   0  0  0  0  0  0  0  0  0  0  0  0
    1.5260   -0.9595   -2.7403 H   0  0  0  0  0  0  0  0  0  0  0  0
    0.3470    1.1645   -0.8773 H   0  0  0  0  0  0  0  0  0  0  0  0
   -0.2373    0.7014   -2.4643 H   0  0  0  0  0  0  0  0  0  0  0  0
   -0.1945   -1.1087    0.0078 H   0  0  0  0  0  0  0  0  0  0  0  0
   -0.6882   -1.6296   -1.6060 H   0  0  0  0  0  0  0  0  0  0  0  0
   -1.9760    0.6380   -0.0032 H   0  0  0  0  0  0  0  0  0  0  0  0
   -2.4952    0.1057   -1.6047 H   0  0  0  0  0  0  0  0  0  0  0  0
   -2.5062   -1.6113    0.9376 H   0  0  0  0  0  0  0  0  0  0  0  0
   -2.9209   -2.2000   -0.6686 H   0  0  0  0  0  0  0  0  0  0  0  0
   -4.7972   -0.5660   -0.8100 H   0  0  0  0  0  0  0  0  0  0  0  0
   -4.9607   -1.7376    0.4920 H   0  0  0  0  0  0  0  0  0  0  0  0
   -4.0815   -0.0456    2.1268 H   0  0  0  0  0  0  0  0  0  0  0  0
   -4.0218    1.1620    0.8436 H   0  0  0  0  0  0  0  0  0  0  0  0
   -6.5715   -0.3256    1.6657 H   0  0  0  0  0  0  0  0  0  0  0  0
   -6.0791    1.2505    2.3259 H   0  0  0  0  0  0  0  0  0  0  0  0
   -8.3164    1.8560   -0.3432 H   0  0  0  0  0  0  0  0  0  0  0  0
  1  2  1  0
  2  3  1  0
  3  4  1  0
  4  5  1  0
  5  6  1  0
  6  7  1  0
  7  8  1  0
  8  9  1  0
  9 10  1  0
 10 11  1  0
 11 12  1  0
 12 13  1  0
 13 14  1  0
 14 15  1  0
 15 16  2  0
 15 17  1  0
  1 18  1  0
  1 19  1  0
  1 20  1  0
  2 21  1  0
  2 22  1  0
  3 23  1  0
  3 24  1  0
  4 25  1  0
  4 26  1  0
  5 27  1  0
  5 28  1  0
  6 29  1  0
  6 30  1  0
  7 31  1  0
  7 32  1  0
  8 33  1  0
  8 34  1  0
  9 35  1  0
  9 36  1  0
 10 37  1  0
 10 38  1  0
 11 39  1  0
 11 40  1  0
 12 41  1  0
 12 42  1  0
 13 43  1  0
 13 44  1  0
 14 45  1  0
 14 46  1  0
 17 47  1  0
M  END
$$$$
