CC/C=C\C/C=C\C/C=C\C/C=C\C/C=C\CCCC(=O)O
     RDKit          3D

 52 51  0  0  0  0  0  0  0  0999 V2000
   -7.8558    0.4067   -3.7530 C   0  0  0  0  0  0  0  0  0  0  0  0
   -6.4075    0.8259   -3.9486 C   0  0  0  0  0  0  0  0  0  0  0  0
   -5.4871   -0.3598   -3.9226 C   0  0  0  0  0  0  0  0  0  0  0  0
   -4.5955   -0.6814   -2.9703 C   0  0  0  0  0  0  0  0  0  0  0  0
   -4.3290    0.0358   -1.6779 C   0  0  0  0  0  0  0  0  0  0  0  0
   -2.9807    0.6960   -1.7014 C   0  0  0  0  0  0  0  0  0  0  0  0
   -1.8999    0.4017   -0.9584 C   0  0  0  0  0  0  0  0  0  0  0  0
   -1.7591   -0.6645    0.0890 C   0  0  0  0  0  0  0  0  0  0  0  0
   -0.7820   -1.7175   -0.3488 C   0  0  0  0  0  0  0  0  0  0  0  0
    0.4438   -1.9610    0.1459 C   0  0  0  0  0  0  0  0  0  0  0  0
    1.1616   -1.2149    1.2327 C   0  0  0  0  0  0  0  0  0  0  0  0
    1.3048   -2.0628    2.4631 C   0  0  0  0  0  0  0  0  0  0  0  0
    2.4390   -2.5371    3.0070 C   0  0  0  0  0  0  0  0  0  0  0  0
    3.8406   -2.3699    2.4937 C   0  0  0  0  0  0  0  0  0  0  0  0
    4.6249   -1.4295    3.3633 C   0  0  0  0  0  0  0  0  0  0  0  0
    5.0678   -0.1984    3.0572 C   0  0  0  0  0  0  0  0  0  0  0  0
    4.8865    0.5437    1.7635 C   0  0  0  0  0  0  0  0  0  0  0  0
    3.8957    1.6997    1.9322 C   0  0  0  0  0  0  0  0  0  0  0  0
    3.6151    2.4200    0.6178 C   0  0  0  0  0  0  0  0  0  0  0  0
    4.8195    3.1580    0.1087 C   0  0  0  0  0  0  0  0  0  0  0  0
    5.5359    2.8152   -0.8163 O   0  0  0  0  0  0  0  0  0  0  0  0
    5.0727    4.2857    0.7976 O   0  0  0  0  0  0  0  0  0  0  0  0
   -8.0006   -0.0699   -2.7775 H   0  0  0  0  0  0  0  0  0  0  0  0
   -8.1738   -0.2987   -4.5283 H   0  0  0  0  0  0  0  0  0  0  0  0
   -8.5125    1.2811   -3.8030 H   0  0  0  0  0  0  0  0  0  0  0  0
   -6.1385    1.5707   -3.1939 H   0  0  0  0  0  0  0  0  0  0  0  0
   -6.3023    1.3238   -4.9198 H   0  0  0  0  0  0  0  0  0  0  0  0
   -5.5506   -1.0127   -4.7931 H   0  0  0  0  0  0  0  0  0  0  0  0
   -3.9929   -1.5761   -3.1268 H   0  0  0  0  0  0  0  0  0  0  0  0
   -5.0849    0.7998   -1.4714 H   0  0  0  0  0  0  0  0  0  0  0  0
   -4.4180   -0.6898   -0.8641 H   0  0  0  0  0  0  0  0  0  0  0  0
   -2.8884    1.5125   -2.4179 H   0  0  0  0  0  0  0  0  0  0  0  0
   -1.0033    0.9996   -1.1223 H   0  0  0  0  0  0  0  0  0  0  0  0
   -1.4552   -0.1897    1.0270 H   0  0  0  0  0  0  0  0  0  0  0  0
   -2.7114   -1.1567    0.3070 H   0  0  0  0  0  0  0  0  0  0  0  0
   -1.1348   -2.3589   -1.1564 H   0  0  0  0  0  0  0  0  0  0  0  0
    1.0088   -2.7833   -0.2931 H   0  0  0  0  0  0  0  0  0  0  0  0
    2.1312   -0.8939    0.8411 H   0  0  0  0  0  0  0  0  0  0  0  0
    0.6410   -0.2926    1.5085 H   0  0  0  0  0  0  0  0  0  0  0  0
    0.3688   -2.2915    2.9723 H   0  0  0  0  0  0  0  0  0  0  0  0
    2.3499   -3.1240    3.9206 H   0  0  0  0  0  0  0  0  0  0  0  0
    4.3337   -3.3499    2.5138 H   0  0  0  0  0  0  0  0  0  0  0  0
    3.8517   -2.0692    1.4440 H   0  0  0  0  0  0  0  0  0  0  0  0
    4.8495   -1.8076    4.3605 H   0  0  0  0  0  0  0  0  0  0  0  0
    5.6206    0.3422    3.8255 H   0  0  0  0  0  0  0  0  0  0  0  0
    4.5507   -0.1182    0.9602 H   0  0  0  0  0  0  0  0  0  0  0  0
    5.8658    0.9273    1.4536 H   0  0  0  0  0  0  0  0  0  0  0  0
    4.2787    2.4099    2.6759 H   0  0  0  0  0  0  0  0  0  0  0  0
    2.9461    1.3125    2.3228 H   0  0  0  0  0  0  0  0  0  0  0  0
    2.8002    3.1423    0.7434 H   0  0  0  0  0  0  0  0  0  0  0  0
    3.2872    1.7143   -0.1540 H   0  0  0  0  0  0  0  0  0  0  0  0
    5.8719    4.6550    0.3666 H   0  0  0  0  0  0  0  0  0  0  0  0
  1  2  1  0
  2  3  1  0
  3  4  2  0
  4  5  1  0
  5  6  1  0
  6  7  2  0
  7  8  1  0
  8  9  1  0
  9 10  2  0
 10 11  1  0
 11 12  1  0
 12 13  2  0
 13 14  1  0
 14 15  1  0
 15 16  2  0
 16 17  1  0
 17 18  1  0
 18 19  1  0
 19 20  1  0
 20 21  2  0
 20 22  1  0
  1 23  1  0
  1 24  1  0
  1 25  1  0
  2 26  1  0
  2 27  1  0
  3 28  1  0
  4 29  1  0
  5 30  1  0
  5 31  1  0
  6 32  1  0
  7 33  1  0
  8 34  1  0
  8 35  1  0
  9 36  1  0
 10 37  1  0
 11 38  1  0
 11 39  1  0
 12 40  1  0
 13 41  1  0
 14 42  1  0
 14 43  1  0
 15 44  1  0
 16 45  1  0
 17 46  1  0
 17 47  1  0
 18 48  1  0
 18 49  1  0
 19 50  1  0
 19 51  1  0
 22 52  1  0
M  END
$$$$
