O=C(O)CCCCCCCCCCCCCCCCCF
     RDKit          3D

 56 55  0  0  0  0  0  0  0  0999 V2000
    6.8483   -1.1811   -3.0657 O   0  0  0  0  0  0  0  0  0  0  0  0
    7.8749   -0.9050   -2.4703 C   0  0  0  0  0  0  0  0  0  0  0  0
    9.0207   -0.6899   -3.1468 O   0  0  0  0  0  0  0  0  0  0  0  0
    8.0730   -0.7905   -0.9820 C   0  0  0  0  0  0  0  0  0  0  0  0
    6.7550   -0.7283   -0.2089 C   0  0  0  0  0  0  0  0  0  0  0  0
    6.0366    0.6136   -0.3890 C   0  0  0  0  0  0  0  0  0  0  0  0
    4.7833    0.7550    0.4820 C   0  0  0  0  0  0  0  0  0  0  0  0
    3.6479   -0.1838    0.0658 C   0  0  0  0  0  0  0  0  0  0  0  0
    2.3947   -0.0494    0.9383 C   0  0  0  0  0  0  0  0  0  0  0  0
    1.7044    1.3123    0.8084 C   0  0  0  0  0  0  0  0  0  0  0  0
    0.3630    1.3686    1.5492 C   0  0  0  0  0  0  0  0  0  0  0  0
   -0.8695    1.1846    0.6547 C   0  0  0  0  0  0  0  0  0  0  0  0
   -0.9559   -0.1870   -0.0158 C   0  0  0  0  0  0  0  0  0  0  0  0
   -2.2191   -0.3715   -0.8639 C   0  0  0  0  0  0  0  0  0  0  0  0
   -3.5056   -0.4426   -0.0361 C   0  0  0  0  0  0  0  0  0  0  0  0
   -4.7165   -0.7417   -0.9246 C   0  0  0  0  0  0  0  0  0  0  0  0
   -6.0172   -0.9419   -0.1392 C   0  0  0  0  0  0  0  0  0  0  0  0
   -6.5140    0.3326    0.5485 C   0  0  0  0  0  0  0  0  0  0  0  0
   -7.8188    0.1311    1.3259 C   0  0  0  0  0  0  0  0  0  0  0  0
   -9.0215   -0.1565    0.4427 C   0  0  0  0  0  0  0  0  0  0  0  0
   -9.1935    0.8718   -0.4292 F   0  0  0  0  0  0  0  0  0  0  0  0
    8.7657   -0.8061   -4.0861 H   0  0  0  0  0  0  0  0  0  0  0  0
    8.6362   -1.6738   -0.6606 H   0  0  0  0  0  0  0  0  0  0  0  0
    8.6734    0.1008   -0.7687 H   0  0  0  0  0  0  0  0  0  0  0  0
    6.9713   -0.8748    0.8563 H   0  0  0  0  0  0  0  0  0  0  0  0
    6.1065   -1.5538   -0.5217 H   0  0  0  0  0  0  0  0  0  0  0  0
    5.7669    0.7635   -1.4408 H   0  0  0  0  0  0  0  0  0  0  0  0
    6.7272    1.4236   -0.1230 H   0  0  0  0  0  0  0  0  0  0  0  0
    5.0431    0.5822    1.5333 H   0  0  0  0  0  0  0  0  0  0  0  0
    4.4444    1.7943    0.4055 H   0  0  0  0  0  0  0  0  0  0  0  0
    3.9872   -1.2234    0.1341 H   0  0  0  0  0  0  0  0  0  0  0  0
    3.3845   -0.0050   -0.9837 H   0  0  0  0  0  0  0  0  0  0  0  0
    1.7012   -0.8483    0.6558 H   0  0  0  0  0  0  0  0  0  0  0  0
    2.6598   -0.2265    1.9880 H   0  0  0  0  0  0  0  0  0  0  0  0
    1.5742    1.5809   -0.2463 H   0  0  0  0  0  0  0  0  0  0  0  0
    2.3596    2.0738    1.2480 H   0  0  0  0  0  0  0  0  0  0  0  0
    0.2755    2.3606    2.0113 H   0  0  0  0  0  0  0  0  0  0  0  0
    0.3410    0.6447    2.3726 H   0  0  0  0  0  0  0  0  0  0  0  0
   -1.7541    1.3469    1.2805 H   0  0  0  0  0  0  0  0  0  0  0  0
   -0.8811    1.9682   -0.1128 H   0  0  0  0  0  0  0  0  0  0  0  0
   -0.9020   -0.9780    0.7415 H   0  0  0  0  0  0  0  0  0  0  0  0
   -0.0946   -0.3174   -0.6807 H   0  0  0  0  0  0  0  0  0  0  0  0
   -2.1113   -1.3029   -1.4338 H   0  0  0  0  0  0  0  0  0  0  0  0
   -2.2933    0.4405   -1.5975 H   0  0  0  0  0  0  0  0  0  0  0  0
   -3.4083   -1.2237    0.7272 H   0  0  0  0  0  0  0  0  0  0  0  0
   -3.6595    0.5073    0.4843 H   0  0  0  0  0  0  0  0  0  0  0  0
   -4.5215   -1.6577   -1.4964 H   0  0  0  0  0  0  0  0  0  0  0  0
   -4.8483    0.0647   -1.6561 H   0  0  0  0  0  0  0  0  0  0  0  0
   -6.7768   -1.2974   -0.8442 H   0  0  0  0  0  0  0  0  0  0  0  0
   -5.8789   -1.7356    0.6049 H   0  0  0  0  0  0  0  0  0  0  0  0
   -5.7577    0.6839    1.2592 H   0  0  0  0  0  0  0  0  0  0  0  0
   -6.6450    1.1286   -0.1943 H   0  0  0  0  0  0  0  0  0  0  0  0
   -7.6975   -0.6758    2.0574 H   0  0  0  0  0  0  0  0  0  0  0  0
   -8.0187    1.0515    1.8878 H   0  0  0  0  0  0  0  0  0  0  0  0
   -8.9089   -1.0794   -0.1316 H   0  0  0  0  0  0  0  0  0  0  0  0
   -9.9302   -0.2366    1.0465 H   0  0  0  0  0  0  0  0  0  0  0  0
  1  2  2  0
  2  3  1  0
  2  4  1  0
  4  5  1  0
  5  6  1  0
  6  7  1  0
  7  8  1  0
  8  9  1  0
  9 10  1  0
 10 11  1  0
 11 12  1  0
 12 13  1  0
 13 14  1  0
 14 15  1  0
 15 16  1  0
 16 17  1  0
 17 18  1  0
 18 19  1  0
 19 20  1  0
 20 21  1  0
  3 22  1  0
  4 23  1  0
  4 24  1  0
  5 25  1  0
  5 26  1  0
  6 27  1  0
  6 28  1  0
  7 29  1  0
  7 30  1  0
  8 31  1  0
  8 32  1  0
  9 33  1  0
  9 34  1  0
 10 35  1  0
 10 36  1  0
 11 37  1  0
 11 38  1  0
 12 39  1  0
 12 40  1  0
 13 41  1  0
 13 42  1  0
 14 43  1  0
 14 44  1  0
 15 45  1  0
 15 46  1  0
 16 47  1  0
 16 48  1  0
 17 49  1  0
 17 50  1  0
 18 51  1  0
 18 52  1  0
 19 53  1  0
 19 54  1  0
 20 55  1  0
 20 56  1  0
M  END
$$$$
