CCCCCCCCCCCCCCC(=O)OC
     RDKit          3D

 50 49  0  0  0  0  0  0  0  0999 V2000
    7.4536    1.4402    1.8735 C   0  0  0  0  0  0  0  0  0  0  0  0
    5.9588    1.1656    1.8347 C   0  0  0  0  0  0  0  0  0  0  0  0
    5.5223    0.6337    0.4698 C   0  0  0  0  0  0  0  0  0  0  0  0
    4.0172    0.3592    0.4347 C   0  0  0  0  0  0  0  0  0  0  0  0
    3.5837   -0.1766   -0.9317 C   0  0  0  0  0  0  0  0  0  0  0  0
    2.0675   -0.3600   -1.0587 C   0  0  0  0  0  0  0  0  0  0  0  0
    1.5122   -1.4541   -0.1427 C   0  0  0  0  0  0  0  0  0  0  0  0
    0.0329   -1.7729   -0.3947 C   0  0  0  0  0  0  0  0  0  0  0  0
   -0.9510   -1.0166    0.5052 C   0  0  0  0  0  0  0  0  0  0  0  0
   -1.0605    0.4922    0.2803 C   0  0  0  0  0  0  0  0  0  0  0  0
   -1.4688    0.9237   -1.1321 C   0  0  0  0  0  0  0  0  0  0  0  0
   -2.7916    0.3480   -1.6473 C   0  0  0  0  0  0  0  0  0  0  0  0
   -3.9987    0.7357   -0.7925 C   0  0  0  0  0  0  0  0  0  0  0  0
   -5.2976    0.2299   -1.4100 C   0  0  0  0  0  0  0  0  0  0  0  0
   -6.4794    0.6361   -0.5689 C   0  0  0  0  0  0  0  0  0  0  0  0
   -7.1729    1.6198   -0.7879 O   0  0  0  0  0  0  0  0  0  0  0  0
   -6.6437   -0.2300    0.4686 O   0  0  0  0  0  0  0  0  0  0  0  0
   -7.7371    0.0958    1.3273 C   0  0  0  0  0  0  0  0  0  0  0  0
    7.7438    1.8196    2.8583 H   0  0  0  0  0  0  0  0  0  0  0  0
    7.7347    2.1880    1.1251 H   0  0  0  0  0  0  0  0  0  0  0  0
    8.0254    0.5272    1.6792 H   0  0  0  0  0  0  0  0  0  0  0  0
    5.4171    2.0906    2.0645 H   0  0  0  0  0  0  0  0  0  0  0  0
    5.7063    0.4391    2.6158 H   0  0  0  0  0  0  0  0  0  0  0  0
    6.0693   -0.2896    0.2429 H   0  0  0  0  0  0  0  0  0  0  0  0
    5.7816    1.3624   -0.3079 H   0  0  0  0  0  0  0  0  0  0  0  0
    3.4704    1.2833    0.6578 H   0  0  0  0  0  0  0  0  0  0  0  0
    3.7674   -0.3643    1.2187 H   0  0  0  0  0  0  0  0  0  0  0  0
    4.0890   -1.1286   -1.1349 H   0  0  0  0  0  0  0  0  0  0  0  0
    3.9084    0.5249   -1.7104 H   0  0  0  0  0  0  0  0  0  0  0  0
    1.8439   -0.6194   -2.1009 H   0  0  0  0  0  0  0  0  0  0  0  0
    1.5771    0.5970   -0.8604 H   0  0  0  0  0  0  0  0  0  0  0  0
    2.0884   -2.3701   -0.3267 H   0  0  0  0  0  0  0  0  0  0  0  0
    1.6645   -1.1958    0.9107 H   0  0  0  0  0  0  0  0  0  0  0  0
   -0.1089   -2.8407   -0.1801 H   0  0  0  0  0  0  0  0  0  0  0  0
   -0.2232   -1.6460   -1.4520 H   0  0  0  0  0  0  0  0  0  0  0  0
   -0.6756   -1.1895    1.5535 H   0  0  0  0  0  0  0  0  0  0  0  0
   -1.9432   -1.4681    0.3847 H   0  0  0  0  0  0  0  0  0  0  0  0
   -1.7831    0.8951    1.0004 H   0  0  0  0  0  0  0  0  0  0  0  0
   -0.1078    0.9688    0.5361 H   0  0  0  0  0  0  0  0  0  0  0  0
   -0.6775    0.6551   -1.8408 H   0  0  0  0  0  0  0  0  0  0  0  0
   -1.5296    2.0192   -1.1515 H   0  0  0  0  0  0  0  0  0  0  0  0
   -2.7238   -0.7433   -1.7224 H   0  0  0  0  0  0  0  0  0  0  0  0
   -2.9449    0.7169   -2.6695 H   0  0  0  0  0  0  0  0  0  0  0  0
   -3.8954    0.3240    0.2180 H   0  0  0  0  0  0  0  0  0  0  0  0
   -4.0430    1.8266   -0.6844 H   0  0  0  0  0  0  0  0  0  0  0  0
   -5.4402    0.6429   -2.4154 H   0  0  0  0  0  0  0  0  0  0  0  0
   -5.2933   -0.8609   -1.5180 H   0  0  0  0  0  0  0  0  0  0  0  0
   -7.5821    1.0756    1.7900 H   0  0  0  0  0  0  0  0  0  0  0  0
   -8.6805    0.0726    0.7729 H   0  0  0  0  0  0  0  0  0  0  0  0
   -7.7823   -0.6573    2.1188 H   0  0  0  0  0  0  0  0  0  0  0  0
  1  2  1  0
  2  3  1  0
  3  4  1  0
  4  5  1  0
  5  6  1  0
  6  7  1  0
  7  8  1  0
  8  9  1  0
  9 10  1  0
 10 11  1  0
 11 12  1  0
 12 13  1  0
 13 14  1  0
 14 15  1  0
 15 16  2  0
 15 17  1  0
 17 18  1  0
  1 19  1  0
  1 20  1  0
  1 21  1  0
  2 22  1  0
  2 23  1  0
  3 24  1  0
  3 25  1  0
  4 26  1  0
  4 27  1  0
  5 28  1  0
  5 29  1  0
  6 30  1  0
  6 31  1  0
  7 32  1  0
  7 33  1  0
  8 34  1  0
  8 35  1  0
  9 36  1  0
  9 37  1  0
 10 38  1  0
 10 39  1  0
 11 40  1  0
 11 41  1  0
 12 42  1  0
 12 43  1  0
 13 44  1  0
 13 45  1  0
 14 46  1  0
 14 47  1  0
 18 48  1  0
 18 49  1  0
 18 50  1  0
M  END
$$$$
