COC(=O)CCCCCCCCCCCCCCCCCF
     RDKit          3D

 59 58  0  0  0  0  0  0  0  0999 V2000
    8.6947    2.1052   -1.0985 C   0  0  0  0  0  0  0  0  0  0  0  0
    7.5379    2.0456   -0.2635 O   0  0  0  0  0  0  0  0  0  0  0  0
    7.5767    1.0492    0.6634 C   0  0  0  0  0  0  0  0  0  0  0  0
    8.4972    0.2573    0.8133 O   0  0  0  0  0  0  0  0  0  0  0  0
    6.3185    1.0504    1.4944 C   0  0  0  0  0  0  0  0  0  0  0  0
    5.0965    0.5908    0.7032 C   0  0  0  0  0  0  0  0  0  0  0  0
    5.1749   -0.8903    0.3184 C   0  0  0  0  0  0  0  0  0  0  0  0
    3.8937   -1.4126   -0.3403 C   0  0  0  0  0  0  0  0  0  0  0  0
    3.6106   -0.7728   -1.7016 C   0  0  0  0  0  0  0  0  0  0  0  0
    2.4559   -1.4396   -2.4571 C   0  0  0  0  0  0  0  0  0  0  0  0
    1.1013   -1.4482   -1.7396 C   0  0  0  0  0  0  0  0  0  0  0  0
    0.5663   -0.0471   -1.4328 C   0  0  0  0  0  0  0  0  0  0  0  0
   -0.7913   -0.0554   -0.7204 C   0  0  0  0  0  0  0  0  0  0  0  0
   -1.9411   -0.5413   -1.6070 C   0  0  0  0  0  0  0  0  0  0  0  0
   -3.2975   -0.5460   -0.8922 C   0  0  0  0  0  0  0  0  0  0  0  0
   -3.8002    0.8550   -0.5333 C   0  0  0  0  0  0  0  0  0  0  0  0
   -5.2483    0.8664   -0.0302 C   0  0  0  0  0  0  0  0  0  0  0  0
   -5.4337    0.1153    1.2910 C   0  0  0  0  0  0  0  0  0  0  0  0
   -6.8228    0.3090    1.9079 C   0  0  0  0  0  0  0  0  0  0  0  0
   -7.9505   -0.2898    1.0643 C   0  0  0  0  0  0  0  0  0  0  0  0
   -9.2935   -0.1688    1.7655 C   0  0  0  0  0  0  0  0  0  0  0  0
   -9.2649   -0.8917    2.9163 F   0  0  0  0  0  0  0  0  0  0  0  0
    8.8046    1.1770   -1.6681 H   0  0  0  0  0  0  0  0  0  0  0  0
    9.5898    2.3024   -0.5002 H   0  0  0  0  0  0  0  0  0  0  0  0
    8.5612    2.9301   -1.8038 H   0  0  0  0  0  0  0  0  0  0  0  0
    6.1662    2.0661    1.8780 H   0  0  0  0  0  0  0  0  0  0  0  0
    6.4788    0.4092    2.3688 H   0  0  0  0  0  0  0  0  0  0  0  0
    4.2028    0.7561    1.3169 H   0  0  0  0  0  0  0  0  0  0  0  0
    4.9874    1.2067   -0.1962 H   0  0  0  0  0  0  0  0  0  0  0  0
    5.3615   -1.4853    1.2211 H   0  0  0  0  0  0  0  0  0  0  0  0
    6.0242   -1.0611   -0.3537 H   0  0  0  0  0  0  0  0  0  0  0  0
    3.9925   -2.4977   -0.4678 H   0  0  0  0  0  0  0  0  0  0  0  0
    3.0495   -1.2475    0.3388 H   0  0  0  0  0  0  0  0  0  0  0  0
    3.4032    0.2959   -1.5847 H   0  0  0  0  0  0  0  0  0  0  0  0
    4.5099   -0.8453   -2.3261 H   0  0  0  0  0  0  0  0  0  0  0  0
    2.3408   -0.9378   -3.4260 H   0  0  0  0  0  0  0  0  0  0  0  0
    2.7338   -2.4773   -2.6805 H   0  0  0  0  0  0  0  0  0  0  0  0
    1.1700   -2.0312   -0.8142 H   0  0  0  0  0  0  0  0  0  0  0  0
    0.3936   -1.9794   -2.3859 H   0  0  0  0  0  0  0  0  0  0  0  0
    0.4934    0.5353   -2.3591 H   0  0  0  0  0  0  0  0  0  0  0  0
    1.2747    0.4780   -0.7821 H   0  0  0  0  0  0  0  0  0  0  0  0
   -0.9954    0.9691   -0.3893 H   0  0  0  0  0  0  0  0  0  0  0  0
   -0.7297   -0.6745    0.1827 H   0  0  0  0  0  0  0  0  0  0  0  0
   -1.7413   -1.5653   -1.9410 H   0  0  0  0  0  0  0  0  0  0  0  0
   -2.0028    0.0798   -2.5087 H   0  0  0  0  0  0  0  0  0  0  0  0
   -4.0283   -1.0296   -1.5521 H   0  0  0  0  0  0  0  0  0  0  0  0
   -3.2252   -1.1645    0.0096 H   0  0  0  0  0  0  0  0  0  0  0  0
   -3.7417    1.4969   -1.4209 H   0  0  0  0  0  0  0  0  0  0  0  0
   -3.1542    1.3059    0.2283 H   0  0  0  0  0  0  0  0  0  0  0  0
   -5.8987    0.4399   -0.8022 H   0  0  0  0  0  0  0  0  0  0  0  0
   -5.5556    1.9109    0.1034 H   0  0  0  0  0  0  0  0  0  0  0  0
   -5.2526   -0.9557    1.1455 H   0  0  0  0  0  0  0  0  0  0  0  0
   -4.6872    0.4691    2.0128 H   0  0  0  0  0  0  0  0  0  0  0  0
   -6.8244   -0.1627    2.8984 H   0  0  0  0  0  0  0  0  0  0  0  0
   -7.0080    1.3781    2.0684 H   0  0  0  0  0  0  0  0  0  0  0  0
   -7.7386   -1.3490    0.8787 H   0  0  0  0  0  0  0  0  0  0  0  0
   -8.0116    0.2164    0.0954 H   0  0  0  0  0  0  0  0  0  0  0  0
  -10.0960   -0.5690    1.1393 H   0  0  0  0  0  0  0  0  0  0  0  0
   -9.5273    0.8693    2.0192 H   0  0  0  0  0  0  0  0  0  0  0  0
  1  2  1  0
  2  3  1  0
  3  4  2  0
  3  5  1  0
  5  6  1  0
  6  7  1  0
  7  8  1  0
  8  9  1  0
  9 10  1  0
 10 11  1  0
 11 12  1  0
 12 13  1  0
 13 14  1  0
 14 15  1  0
 15 16  1  0
 16 17  1  0
 17 18  1  0
 18 19  1  0
 19 20  1  0
 20 21  1  0
 21 22  1  0
  1 23  1  0
  1 24  1  0
  1 25  1  0
  5 26  1  0
  5 27  1  0
  6 28  1  0
  6 29  1  0
  7 30  1  0
  7 31  1  0
  8 32  1  0
  8 33  1  0
  9 34  1  0
  9 35  1  0
 10 36  1  0
 10 37  1  0
 11 38  1  0
 11 39  1  0
 12 40  1  0
 12 41  1  0
 13 42  1  0
 13 43  1  0
 14 44  1  0
 14 45  1  0
 15 46  1  0
 15 47  1  0
 16 48  1  0
 16 49  1  0
 17 50  1  0
 17 51  1  0
 18 52  1  0
 18 53  1  0
 19 54  1  0
 19 55  1  0
 20 56  1  0
 20 57  1  0
 21 58  1  0
 21 59  1  0
M  END
$$$$
