CCCCCC/C=C\CCCCCCCCC(=O)OC
     RDKit          3D

 54 53  0  0  0  0  0  0  0  0999 V2000
    8.4663    0.9118   -0.8009 C   0  0  0  0  0  0  0  0  0  0  0  0
    7.0836    0.3262   -0.5571 C   0  0  0  0  0  0  0  0  0  0  0  0
    7.0019   -0.3602    0.8069 C   0  0  0  0  0  0  0  0  0  0  0  0
    5.6657   -1.0661    1.0542 C   0  0  0  0  0  0  0  0  0  0  0  0
    4.4784   -0.1049    1.1517 C   0  0  0  0  0  0  0  0  0  0  0  0
    3.1916   -0.8516    1.5098 C   0  0  0  0  0  0  0  0  0  0  0  0
    2.0280    0.0923    1.6232 C   0  0  0  0  0  0  0  0  0  0  0  0
    0.9957    0.2115    0.7728 C   0  0  0  0  0  0  0  0  0  0  0  0
    0.7962   -0.5301   -0.5191 C   0  0  0  0  0  0  0  0  0  0  0  0
   -0.1926   -1.6948   -0.4048 C   0  0  0  0  0  0  0  0  0  0  0  0
   -1.6128   -1.3204    0.0383 C   0  0  0  0  0  0  0  0  0  0  0  0
   -2.3118   -0.3571   -0.9247 C   0  0  0  0  0  0  0  0  0  0  0  0
   -3.7990   -0.1552   -0.6103 C   0  0  0  0  0  0  0  0  0  0  0  0
   -4.0438    0.5992    0.6979 C   0  0  0  0  0  0  0  0  0  0  0  0
   -5.5250    0.7311    1.0752 C   0  0  0  0  0  0  0  0  0  0  0  0
   -6.3351    1.6596    0.1710 C   0  0  0  0  0  0  0  0  0  0  0  0
   -6.8171    1.0216   -1.1090 C   0  0  0  0  0  0  0  0  0  0  0  0
   -6.6199    1.4929   -2.2214 O   0  0  0  0  0  0  0  0  0  0  0  0
   -7.5316   -0.1077   -0.8531 O   0  0  0  0  0  0  0  0  0  0  0  0
   -8.0299   -0.7573   -2.0230 C   0  0  0  0  0  0  0  0  0  0  0  0
    8.7167    1.6564   -0.0385 H   0  0  0  0  0  0  0  0  0  0  0  0
    9.2325    0.1301   -0.7833 H   0  0  0  0  0  0  0  0  0  0  0  0
    8.5033    1.4012   -1.7791 H   0  0  0  0  0  0  0  0  0  0  0  0
    6.8531   -0.3932   -1.3512 H   0  0  0  0  0  0  0  0  0  0  0  0
    6.3461    1.1331   -0.6227 H   0  0  0  0  0  0  0  0  0  0  0  0
    7.8013   -1.1083    0.8792 H   0  0  0  0  0  0  0  0  0  0  0  0
    7.1837    0.3727    1.6024 H   0  0  0  0  0  0  0  0  0  0  0  0
    5.4846   -1.7993    0.2589 H   0  0  0  0  0  0  0  0  0  0  0  0
    5.7464   -1.6306    1.9915 H   0  0  0  0  0  0  0  0  0  0  0  0
    4.6875    0.6603    1.9098 H   0  0  0  0  0  0  0  0  0  0  0  0
    4.3388    0.4156    0.1970 H   0  0  0  0  0  0  0  0  0  0  0  0
    3.3133   -1.3597    2.4744 H   0  0  0  0  0  0  0  0  0  0  0  0
    2.9994   -1.6399    0.7744 H   0  0  0  0  0  0  0  0  0  0  0  0
    2.0301    0.7264    2.5095 H   0  0  0  0  0  0  0  0  0  0  0  0
    0.2214    0.9382    1.0168 H   0  0  0  0  0  0  0  0  0  0  0  0
    0.4572    0.1823   -1.2801 H   0  0  0  0  0  0  0  0  0  0  0  0
    1.7504   -0.9158   -0.8955 H   0  0  0  0  0  0  0  0  0  0  0  0
    0.2056   -2.4339    0.3022 H   0  0  0  0  0  0  0  0  0  0  0  0
   -0.2472   -2.1997   -1.3775 H   0  0  0  0  0  0  0  0  0  0  0  0
   -1.5811   -0.8955    1.0470 H   0  0  0  0  0  0  0  0  0  0  0  0
   -2.1996   -2.2448    0.1090 H   0  0  0  0  0  0  0  0  0  0  0  0
   -1.8091    0.6166   -0.9203 H   0  0  0  0  0  0  0  0  0  0  0  0
   -2.2304   -0.7529   -1.9447 H   0  0  0  0  0  0  0  0  0  0  0  0
   -4.3060   -1.1271   -0.5842 H   0  0  0  0  0  0  0  0  0  0  0  0
   -4.2316    0.4102   -1.4416 H   0  0  0  0  0  0  0  0  0  0  0  0
   -3.5463    0.0733    1.5205 H   0  0  0  0  0  0  0  0  0  0  0  0
   -3.5872    1.5948    0.6417 H   0  0  0  0  0  0  0  0  0  0  0  0
   -5.5628    1.1462    2.0906 H   0  0  0  0  0  0  0  0  0  0  0  0
   -5.9788   -0.2648    1.1331 H   0  0  0  0  0  0  0  0  0  0  0  0
   -7.2285    2.0073    0.7037 H   0  0  0  0  0  0  0  0  0  0  0  0
   -5.7508    2.5518   -0.0815 H   0  0  0  0  0  0  0  0  0  0  0  0
   -8.5706   -1.6541   -1.7082 H   0  0  0  0  0  0  0  0  0  0  0  0
   -8.7256   -0.1029   -2.5575 H   0  0  0  0  0  0  0  0  0  0  0  0
   -7.2042   -1.0617   -2.6740 H   0  0  0  0  0  0  0  0  0  0  0  0
  1  2  1  0
  2  3  1  0
  3  4  1  0
  4  5  1  0
  5  6  1  0
  6  7  1  0
  7  8  2  0
  8  9  1  0
  9 10  1  0
 10 11  1  0
 11 12  1  0
 12 13  1  0
 13 14  1  0
 14 15  1  0
 15 16  1  0
 16 17  1  0
 17 18  2  0
 17 19  1  0
 19 20  1  0
  1 21  1  0
  1 22  1  0
  1 23  1  0
  2 24  1  0
  2 25  1  0
  3 26  1  0
  3 27  1  0
  4 28  1  0
  4 29  1  0
  5 30  1  0
  5 31  1  0
  6 32  1  0
  6 33  1  0
  7 34  1  0
  8 35  1  0
  9 36  1  0
  9 37  1  0
 10 38  1  0
 10 39  1  0
 11 40  1  0
 11 41  1  0
 12 42  1  0
 12 43  1  0
 13 44  1  0
 13 45  1  0
 14 46  1  0
 14 47  1  0
 15 48  1  0
 15 49  1  0
 16 50  1  0
 16 51  1  0
 20 52  1  0
 20 53  1  0
 20 54  1  0
M  END
$$$$
