CC/C=C\C/C=C\C/C=C\C/C=C\CCC(=O)O
     RDKit          3D

 42 41  0  0  0  0  0  0  0  0999 V2000
    0.3113   -1.0069   -2.5555 C   0  0  0  0  0  0  0  0  0  0  0  0
    0.2478   -2.4211   -2.0014 C   0  0  0  0  0  0  0  0  0  0  0  0
   -0.8233   -2.5592   -0.9579 C   0  0  0  0  0  0  0  0  0  0  0  0
   -0.6614   -2.9029    0.3312 C   0  0  0  0  0  0  0  0  0  0  0  0
    0.6411   -3.1835    1.0270 C   0  0  0  0  0  0  0  0  0  0  0  0
    0.5285   -2.9842    2.5136 C   0  0  0  0  0  0  0  0  0  0  0  0
    1.0767   -2.0168    3.2688 C   0  0  0  0  0  0  0  0  0  0  0  0
    1.9232   -0.8612    2.8182 C   0  0  0  0  0  0  0  0  0  0  0  0
    1.3103    0.4470    3.2324 C   0  0  0  0  0  0  0  0  0  0  0  0
    0.7025    1.3547    2.4493 C   0  0  0  0  0  0  0  0  0  0  0  0
    0.4734    1.2825    0.9668 C   0  0  0  0  0  0  0  0  0  0  0  0
   -0.9915    1.1477    0.6604 C   0  0  0  0  0  0  0  0  0  0  0  0
   -1.7925    2.0258    0.0347 C   0  0  0  0  0  0  0  0  0  0  0  0
   -1.4260    3.3889   -0.4862 C   0  0  0  0  0  0  0  0  0  0  0  0
   -1.4894    3.4620   -2.0090 C   0  0  0  0  0  0  0  0  0  0  0  0
   -0.3183    2.7780   -2.6589 C   0  0  0  0  0  0  0  0  0  0  0  0
    0.8264    2.7156   -2.2440 O   0  0  0  0  0  0  0  0  0  0  0  0
   -0.6378    2.2485   -3.8568 O   0  0  0  0  0  0  0  0  0  0  0  0
    0.5882   -0.2904   -1.7770 H   0  0  0  0  0  0  0  0  0  0  0  0
   -0.6522   -0.7000   -2.9761 H   0  0  0  0  0  0  0  0  0  0  0  0
    1.0612   -0.9453   -3.3506 H   0  0  0  0  0  0  0  0  0  0  0  0
    1.2328   -2.7040   -1.6178 H   0  0  0  0  0  0  0  0  0  0  0  0
    0.0216   -3.1158   -2.8190 H   0  0  0  0  0  0  0  0  0  0  0  0
   -1.8405   -2.3893   -1.3101 H   0  0  0  0  0  0  0  0  0  0  0  0
   -1.5622   -2.9994    0.9365 H   0  0  0  0  0  0  0  0  0  0  0  0
    0.9134   -4.2315    0.8531 H   0  0  0  0  0  0  0  0  0  0  0  0
    1.4462   -2.5735    0.6096 H   0  0  0  0  0  0  0  0  0  0  0  0
   -0.0648   -3.7399    3.0286 H   0  0  0  0  0  0  0  0  0  0  0  0
    0.8916   -2.0599    4.3420 H   0  0  0  0  0  0  0  0  0  0  0  0
    2.9059   -0.9445    3.2986 H   0  0  0  0  0  0  0  0  0  0  0  0
    2.1199   -0.8883    1.7450 H   0  0  0  0  0  0  0  0  0  0  0  0
    1.3753    0.6691    4.2970 H   0  0  0  0  0  0  0  0  0  0  0  0
    0.3152    2.2543    2.9267 H   0  0  0  0  0  0  0  0  0  0  0  0
    0.9104    2.1745    0.5094 H   0  0  0  0  0  0  0  0  0  0  0  0
    0.9928    0.4330    0.5150 H   0  0  0  0  0  0  0  0  0  0  0  0
   -1.4309    0.2022    0.9802 H   0  0  0  0  0  0  0  0  0  0  0  0
   -2.8352    1.7394   -0.1035 H   0  0  0  0  0  0  0  0  0  0  0  0
   -2.1518    4.1002   -0.0725 H   0  0  0  0  0  0  0  0  0  0  0  0
   -0.4467    3.7168   -0.1247 H   0  0  0  0  0  0  0  0  0  0  0  0
   -1.4736    4.5085   -2.3334 H   0  0  0  0  0  0  0  0  0  0  0  0
   -2.4216    3.0122   -2.3709 H   0  0  0  0  0  0  0  0  0  0  0  0
    0.2040    1.8570   -4.1709 H   0  0  0  0  0  0  0  0  0  0  0  0
  1  2  1  0
  2  3  1  0
  3  4  2  0
  4  5  1  0
  5  6  1  0
  6  7  2  0
  7  8  1  0
  8  9  1  0
  9 10  2  0
 10 11  1  0
 11 12  1  0
 12 13  2  0
 13 14  1  0
 14 15  1  0
 15 16  1  0
 16 17  2  0
 16 18  1  0
  1 19  1  0
  1 20  1  0
  1 21  1  0
  2 22  1  0
  2 23  1  0
  3 24  1  0
  4 25  1  0
  5 26  1  0
  5 27  1  0
  6 28  1  0
  7 29  1  0
  8 30  1  0
  8 31  1  0
  9 32  1  0
 10 33  1  0
 11 34  1  0
 11 35  1  0
 12 36  1  0
 13 37  1  0
 14 38  1  0
 14 39  1  0
 15 40  1  0
 15 41  1  0
 18 42  1  0
M  END
$$$$
