CCCCC/C=C\C/C=C\C/C=C\CCCCC(=O)OC
     RDKit          3D

 53 52  0  0  0  0  0  0  0  0999 V2000
    0.6561    2.0245    1.9454 C   0  0  0  0  0  0  0  0  0  0  0  0
    1.3442    1.0058    1.0500 C   0  0  0  0  0  0  0  0  0  0  0  0
    2.3364    0.1507    1.8399 C   0  0  0  0  0  0  0  0  0  0  0  0
    2.9734   -0.9677    1.0095 C   0  0  0  0  0  0  0  0  0  0  0  0
    3.9017   -0.4537   -0.0929 C   0  0  0  0  0  0  0  0  0  0  0  0
    4.5420   -1.5903   -0.8375 C   0  0  0  0  0  0  0  0  0  0  0  0
    4.3082   -2.0793   -2.0682 C   0  0  0  0  0  0  0  0  0  0  0  0
    3.3377   -1.7414   -3.1710 C   0  0  0  0  0  0  0  0  0  0  0  0
    2.4562   -0.5502   -2.9645 C   0  0  0  0  0  0  0  0  0  0  0  0
    1.1216   -0.5260   -2.8044 C   0  0  0  0  0  0  0  0  0  0  0  0
    0.1674   -1.6852   -2.8096 C   0  0  0  0  0  0  0  0  0  0  0  0
   -0.2848   -2.0186   -1.4184 C   0  0  0  0  0  0  0  0  0  0  0  0
   -1.4725   -1.7574   -0.8478 C   0  0  0  0  0  0  0  0  0  0  0  0
   -2.6507   -1.0660   -1.4714 C   0  0  0  0  0  0  0  0  0  0  0  0
   -2.7825    0.4009   -1.0494 C   0  0  0  0  0  0  0  0  0  0  0  0
   -3.0525    0.5842    0.4464 C   0  0  0  0  0  0  0  0  0  0  0  0
   -3.3055    2.0497    0.7849 C   0  0  0  0  0  0  0  0  0  0  0  0
   -3.5085    2.2369    2.2662 C   0  0  0  0  0  0  0  0  0  0  0  0
   -2.6852    2.7454    3.0146 O   0  0  0  0  0  0  0  0  0  0  0  0
   -4.7279    1.7621    2.6428 O   0  0  0  0  0  0  0  0  0  0  0  0
   -4.9960    1.8979    4.0388 C   0  0  0  0  0  0  0  0  0  0  0  0
    0.0838    1.5284    2.7356 H   0  0  0  0  0  0  0  0  0  0  0  0
    1.3862    2.6911    2.4152 H   0  0  0  0  0  0  0  0  0  0  0  0
   -0.0346    2.6377    1.3589 H   0  0  0  0  0  0  0  0  0  0  0  0
    1.8566    1.5403    0.2435 H   0  0  0  0  0  0  0  0  0  0  0  0
    0.5849    0.3662    0.5873 H   0  0  0  0  0  0  0  0  0  0  0  0
    1.8133   -0.3099    2.6873 H   0  0  0  0  0  0  0  0  0  0  0  0
    3.1220    0.7883    2.2633 H   0  0  0  0  0  0  0  0  0  0  0  0
    2.1850   -1.5934    0.5762 H   0  0  0  0  0  0  0  0  0  0  0  0
    3.5447   -1.6137    1.6888 H   0  0  0  0  0  0  0  0  0  0  0  0
    4.7026    0.1462    0.3577 H   0  0  0  0  0  0  0  0  0  0  0  0
    3.3721    0.2240   -0.7589 H   0  0  0  0  0  0  0  0  0  0  0  0
    5.3285   -2.0863   -0.2654 H   0  0  0  0  0  0  0  0  0  0  0  0
    4.9396   -2.9256   -2.3500 H   0  0  0  0  0  0  0  0  0  0  0  0
    3.9213   -1.5607   -4.0828 H   0  0  0  0  0  0  0  0  0  0  0  0
    2.7467   -2.6403   -3.3727 H   0  0  0  0  0  0  0  0  0  0  0  0
    2.9779    0.4064   -2.9593 H   0  0  0  0  0  0  0  0  0  0  0  0
    0.6529    0.4462   -2.6535 H   0  0  0  0  0  0  0  0  0  0  0  0
    0.6132   -2.5811   -3.2523 H   0  0  0  0  0  0  0  0  0  0  0  0
   -0.6733   -1.4316   -3.4628 H   0  0  0  0  0  0  0  0  0  0  0  0
    0.4628   -2.5295   -0.8121 H   0  0  0  0  0  0  0  0  0  0  0  0
   -1.6113   -2.0753    0.1853 H   0  0  0  0  0  0  0  0  0  0  0  0
   -3.5599   -1.6139   -1.1944 H   0  0  0  0  0  0  0  0  0  0  0  0
   -2.6004   -1.1128   -2.5639 H   0  0  0  0  0  0  0  0  0  0  0  0
   -1.8746    0.9502   -1.3291 H   0  0  0  0  0  0  0  0  0  0  0  0
   -3.6082    0.8462   -1.6186 H   0  0  0  0  0  0  0  0  0  0  0  0
   -3.9199   -0.0189    0.7412 H   0  0  0  0  0  0  0  0  0  0  0  0
   -2.2018    0.2194    1.0343 H   0  0  0  0  0  0  0  0  0  0  0  0
   -4.1838    2.4391    0.2573 H   0  0  0  0  0  0  0  0  0  0  0  0
   -2.4542    2.6686    0.4788 H   0  0  0  0  0  0  0  0  0  0  0  0
   -4.9940    2.9533    4.3287 H   0  0  0  0  0  0  0  0  0  0  0  0
   -4.2662    1.3321    4.6262 H   0  0  0  0  0  0  0  0  0  0  0  0
   -5.9904    1.4873    4.2342 H   0  0  0  0  0  0  0  0  0  0  0  0
  1  2  1  0
  2  3  1  0
  3  4  1  0
  4  5  1  0
  5  6  1  0
  6  7  2  0
  7  8  1  0
  8  9  1  0
  9 10  2  0
 10 11  1  0
 11 12  1  0
 12 13  2  0
 13 14  1  0
 14 15  1  0
 15 16  1  0
 16 17  1  0
 17 18  1  0
 18 19  2  0
 18 20  1  0
 20 21  1  0
  1 22  1  0
  1 23  1  0
  1 24  1  0
  2 25  1  0
  2 26  1  0
  3 27  1  0
  3 28  1  0
  4 29  1  0
  4 30  1  0
  5 31  1  0
  5 32  1  0
  6 33  1  0
  7 34  1  0
  8 35  1  0
  8 36  1  0
  9 37  1  0
 10 38  1  0
 11 39  1  0
 11 40  1  0
 12 41  1  0
 13 42  1  0
 14 43  1  0
 14 44  1  0
 15 45  1  0
 15 46  1  0
 16 47  1  0
 16 48  1  0
 17 49  1  0
 17 50  1  0
 21 51  1  0
 21 52  1  0
 21 53  1  0
M  END
$$$$
