CCCCC/C=C\C/C=C\CCCC/C=C\CC(=O)O
     RDKit          3D

 50 49  0  0  0  0  0  0  0  0999 V2000
    5.0493    0.2066   -0.9146 C   0  0  0  0  0  0  0  0  0  0  0  0
    5.3395   -0.8585    0.1311 C   0  0  0  0  0  0  0  0  0  0  0  0
    5.3532   -0.3282    1.5656 C   0  0  0  0  0  0  0  0  0  0  0  0
    4.0723    0.3476    2.0701 C   0  0  0  0  0  0  0  0  0  0  0  0
    2.8998   -0.5954    2.3616 C   0  0  0  0  0  0  0  0  0  0  0  0
    2.1653   -1.0821    1.1465 C   0  0  0  0  0  0  0  0  0  0  0  0
    1.1627   -0.4563    0.5074 C   0  0  0  0  0  0  0  0  0  0  0  0
    0.5682    0.8843    0.8362 C   0  0  0  0  0  0  0  0  0  0  0  0
    0.7383    1.8369   -0.3126 C   0  0  0  0  0  0  0  0  0  0  0  0
   -0.2160    2.4239   -1.0540 C   0  0  0  0  0  0  0  0  0  0  0  0
   -1.7077    2.2855   -0.9210 C   0  0  0  0  0  0  0  0  0  0  0  0
   -2.3668    1.7323   -2.1899 C   0  0  0  0  0  0  0  0  0  0  0  0
   -2.0371    0.2686   -2.5170 C   0  0  0  0  0  0  0  0  0  0  0  0
   -2.9970   -0.7524   -1.8938 C   0  0  0  0  0  0  0  0  0  0  0  0
   -2.8515   -0.9069   -0.4086 C   0  0  0  0  0  0  0  0  0  0  0  0
   -3.7494   -0.6066    0.5448 C   0  0  0  0  0  0  0  0  0  0  0  0
   -5.1154   -0.0029    0.3720 C   0  0  0  0  0  0  0  0  0  0  0  0
   -6.2048   -0.9376    0.8591 C   0  0  0  0  0  0  0  0  0  0  0  0
   -6.0862   -1.9451    1.5364 O   0  0  0  0  0  0  0  0  0  0  0  0
   -7.4330   -0.5129    0.4907 O   0  0  0  0  0  0  0  0  0  0  0  0
    4.0274    0.5860   -0.8318 H   0  0  0  0  0  0  0  0  0  0  0  0
    5.7408    1.0496   -0.8191 H   0  0  0  0  0  0  0  0  0  0  0  0
    5.1647   -0.2131   -1.9191 H   0  0  0  0  0  0  0  0  0  0  0  0
    4.6281   -1.6823    0.0280 H   0  0  0  0  0  0  0  0  0  0  0  0
    6.3272   -1.2867   -0.0809 H   0  0  0  0  0  0  0  0  0  0  0  0
    6.1699    0.4010    1.6475 H   0  0  0  0  0  0  0  0  0  0  0  0
    5.6151   -1.1513    2.2419 H   0  0  0  0  0  0  0  0  0  0  0  0
    4.3279    0.8396    3.0183 H   0  0  0  0  0  0  0  0  0  0  0  0
    3.7648    1.1527    1.3937 H   0  0  0  0  0  0  0  0  0  0  0  0
    3.2519   -1.4642    2.9313 H   0  0  0  0  0  0  0  0  0  0  0  0
    2.1947   -0.0835    3.0280 H   0  0  0  0  0  0  0  0  0  0  0  0
    2.4720   -2.0571    0.7709 H   0  0  0  0  0  0  0  0  0  0  0  0
    0.7211   -0.9587   -0.3527 H   0  0  0  0  0  0  0  0  0  0  0  0
   -0.4828    0.7372    1.0982 H   0  0  0  0  0  0  0  0  0  0  0  0
    1.0413    1.3328    1.7157 H   0  0  0  0  0  0  0  0  0  0  0  0
    1.7749    2.0725   -0.5550 H   0  0  0  0  0  0  0  0  0  0  0  0
    0.1129    3.0966   -1.8464 H   0  0  0  0  0  0  0  0  0  0  0  0
   -1.9920    1.6929   -0.0508 H   0  0  0  0  0  0  0  0  0  0  0  0
   -2.1103    3.2902   -0.7391 H   0  0  0  0  0  0  0  0  0  0  0  0
   -2.0496    2.3512   -3.0400 H   0  0  0  0  0  0  0  0  0  0  0  0
   -3.4537    1.8590   -2.1145 H   0  0  0  0  0  0  0  0  0  0  0  0
   -0.9997    0.0262   -2.2614 H   0  0  0  0  0  0  0  0  0  0  0  0
   -2.1156    0.1517   -3.6061 H   0  0  0  0  0  0  0  0  0  0  0  0
   -2.7894   -1.7329   -2.3418 H   0  0  0  0  0  0  0  0  0  0  0  0
   -4.0245   -0.5117   -2.1830 H   0  0  0  0  0  0  0  0  0  0  0  0
   -1.9056   -1.3410   -0.0841 H   0  0  0  0  0  0  0  0  0  0  0  0
   -3.4696   -0.8136    1.5787 H   0  0  0  0  0  0  0  0  0  0  0  0
   -5.1720    0.9181    0.9623 H   0  0  0  0  0  0  0  0  0  0  0  0
   -5.3195    0.2491   -0.6717 H   0  0  0  0  0  0  0  0  0  0  0  0
   -8.0345   -1.1861    0.8731 H   0  0  0  0  0  0  0  0  0  0  0  0
  1  2  1  0
  2  3  1  0
  3  4  1  0
  4  5  1  0
  5  6  1  0
  6  7  2  0
  7  8  1  0
  8  9  1  0
  9 10  2  0
 10 11  1  0
 11 12  1  0
 12 13  1  0
 13 14  1  0
 14 15  1  0
 15 16  2  0
 16 17  1  0
 17 18  1  0
 18 19  2  0
 18 20  1  0
  1 21  1  0
  1 22  1  0
  1 23  1  0
  2 24  1  0
  2 25  1  0
  3 26  1  0
  3 27  1  0
  4 28  1  0
  4 29  1  0
  5 30  1  0
  5 31  1  0
  6 32  1  0
  7 33  1  0
  8 34  1  0
  8 35  1  0
  9 36  1  0
 10 37  1  0
 11 38  1  0
 11 39  1  0
 12 40  1  0
 12 41  1  0
 13 42  1  0
 13 43  1  0
 14 44  1  0
 14 45  1  0
 15 46  1  0
 16 47  1  0
 17 48  1  0
 17 49  1  0
 20 50  1  0
M  END
$$$$
