CC/C=C\C/C=C\C/C=C\C/C=C\C/C=C\CCCC(=O)OC
     RDKit          3D

 55 54  0  0  0  0  0  0  0  0999 V2000
   -3.6478   -4.6642   -0.2586 C   0  0  0  0  0  0  0  0  0  0  0  0
   -3.8871   -3.1631   -0.3111 C   0  0  0  0  0  0  0  0  0  0  0  0
   -2.5929   -2.4103   -0.4055 C   0  0  0  0  0  0  0  0  0  0  0  0
   -2.0462   -1.5905    0.5073 C   0  0  0  0  0  0  0  0  0  0  0  0
   -2.5789   -1.2163    1.8589 C   0  0  0  0  0  0  0  0  0  0  0  0
   -1.7059   -1.7729    2.9473 C   0  0  0  0  0  0  0  0  0  0  0  0
   -0.9272   -1.1005    3.8123 C   0  0  0  0  0  0  0  0  0  0  0  0
   -0.7287    0.3842    3.9112 C   0  0  0  0  0  0  0  0  0  0  0  0
    0.6907    0.7598    3.5952 C   0  0  0  0  0  0  0  0  0  0  0  0
    1.1486    1.3810    2.4949 C   0  0  0  0  0  0  0  0  0  0  0  0
    0.3637    1.8158    1.2912 C   0  0  0  0  0  0  0  0  0  0  0  0
    0.3735    3.3107    1.1561 C   0  0  0  0  0  0  0  0  0  0  0  0
    1.0740    4.0516    0.2799 C   0  0  0  0  0  0  0  0  0  0  0  0
    2.0517    3.5673   -0.7515 C   0  0  0  0  0  0  0  0  0  0  0  0
    1.6197    3.9481   -2.1391 C   0  0  0  0  0  0  0  0  0  0  0  0
    1.2122    3.1235   -3.1184 C   0  0  0  0  0  0  0  0  0  0  0  0
    1.0261    1.6365   -3.0215 C   0  0  0  0  0  0  0  0  0  0  0  0
    2.2822    0.8847   -3.4671 C   0  0  0  0  0  0  0  0  0  0  0  0
    2.0748   -0.6270   -3.5091 C   0  0  0  0  0  0  0  0  0  0  0  0
    1.7184   -1.2254   -2.1710 C   0  0  0  0  0  0  0  0  0  0  0  0
    0.7134   -1.8954   -1.9749 O   0  0  0  0  0  0  0  0  0  0  0  0
    2.6722   -0.9487   -1.2416 O   0  0  0  0  0  0  0  0  0  0  0  0
    2.4103   -1.5107    0.0460 C   0  0  0  0  0  0  0  0  0  0  0  0
   -4.6027   -5.1978   -0.2151 H   0  0  0  0  0  0  0  0  0  0  0  0
   -3.1072   -5.0123   -1.1453 H   0  0  0  0  0  0  0  0  0  0  0  0
   -3.0651   -4.9403    0.6269 H   0  0  0  0  0  0  0  0  0  0  0  0
   -4.4931   -2.9234   -1.1926 H   0  0  0  0  0  0  0  0  0  0  0  0
   -4.4764   -2.8641    0.5598 H   0  0  0  0  0  0  0  0  0  0  0  0
   -2.0368   -2.5577   -1.3332 H   0  0  0  0  0  0  0  0  0  0  0  0
   -1.0906   -1.1337    0.2493 H   0  0  0  0  0  0  0  0  0  0  0  0
   -2.6522   -0.1261    1.9068 H   0  0  0  0  0  0  0  0  0  0  0  0
   -3.5957   -1.5871    2.0174 H   0  0  0  0  0  0  0  0  0  0  0  0
   -1.7203   -2.8603    3.0253 H   0  0  0  0  0  0  0  0  0  0  0  0
   -0.3655   -1.6893    4.5372 H   0  0  0  0  0  0  0  0  0  0  0  0
   -0.9435    0.6926    4.9420 H   0  0  0  0  0  0  0  0  0  0  0  0
   -1.4375    0.9398    3.2938 H   0  0  0  0  0  0  0  0  0  0  0  0
    1.4172    0.5030    4.3655 H   0  0  0  0  0  0  0  0  0  0  0  0
    2.2179    1.5840    2.4402 H   0  0  0  0  0  0  0  0  0  0  0  0
    0.7873    1.3266    0.4097 H   0  0  0  0  0  0  0  0  0  0  0  0
   -0.6771    1.4818    1.3338 H   0  0  0  0  0  0  0  0  0  0  0  0
   -0.2770    3.8362    1.8547 H   0  0  0  0  0  0  0  0  0  0  0  0
    0.9504    5.1330    0.3291 H   0  0  0  0  0  0  0  0  0  0  0  0
    3.0201    4.0442   -0.5548 H   0  0  0  0  0  0  0  0  0  0  0  0
    2.2382    2.4934   -0.6713 H   0  0  0  0  0  0  0  0  0  0  0  0
    1.6808    5.0115   -2.3681 H   0  0  0  0  0  0  0  0  0  0  0  0
    0.9643    3.5637   -4.0837 H   0  0  0  0  0  0  0  0  0  0  0  0
    0.7454    1.3503   -2.0028 H   0  0  0  0  0  0  0  0  0  0  0  0
    0.1768    1.3560   -3.6568 H   0  0  0  0  0  0  0  0  0  0  0  0
    2.5767    1.2206   -4.4695 H   0  0  0  0  0  0  0  0  0  0  0  0
    3.1161    1.1291   -2.7974 H   0  0  0  0  0  0  0  0  0  0  0  0
    2.9803   -1.1266   -3.8716 H   0  0  0  0  0  0  0  0  0  0  0  0
    1.2720   -0.8706   -4.2150 H   0  0  0  0  0  0  0  0  0  0  0  0
    1.4434   -1.1721    0.4291 H   0  0  0  0  0  0  0  0  0  0  0  0
    2.4453   -2.6033   -0.0039 H   0  0  0  0  0  0  0  0  0  0  0  0
    3.1915   -1.1681    0.7301 H   0  0  0  0  0  0  0  0  0  0  0  0
  1  2  1  0
  2  3  1  0
  3  4  2  0
  4  5  1  0
  5  6  1  0
  6  7  2  0
  7  8  1  0
  8  9  1  0
  9 10  2  0
 10 11  1  0
 11 12  1  0
 12 13  2  0
 13 14  1  0
 14 15  1  0
 15 16  2  0
 16 17  1  0
 17 18  1  0
 18 19  1  0
 19 20  1  0
 20 21  2  0
 20 22  1  0
 22 23  1  0
  1 24  1  0
  1 25  1  0
  1 26  1  0
  2 27  1  0
  2 28  1  0
  3 29  1  0
  4 30  1  0
  5 31  1  0
  5 32  1  0
  6 33  1  0
  7 34  1  0
  8 35  1  0
  8 36  1  0
  9 37  1  0
 10 38  1  0
 11 39  1  0
 11 40  1  0
 12 41  1  0
 13 42  1  0
 14 43  1  0
 14 44  1  0
 15 45  1  0
 16 46  1  0
 17 47  1  0
 17 48  1  0
 18 49  1  0
 18 50  1  0
 19 51  1  0
 19 52  1  0
 23 53  1  0
 23 54  1  0
 23 55  1  0
M  END
$$$$
