CCCCCCCCCCCCCCCCC(=O)O
     RDKit          3D

 53 52  0  0  0  0  0  0  0  0999 V2000
    6.4025   -1.1781    2.2926 C   0  0  0  0  0  0  0  0  0  0  0  0
    5.2485   -0.9194    1.3358 C   0  0  0  0  0  0  0  0  0  0  0  0
    5.7132   -0.9577   -0.1206 C   0  0  0  0  0  0  0  0  0  0  0  0
    4.5690   -0.8188   -1.1289 C   0  0  0  0  0  0  0  0  0  0  0  0
    3.8861    0.5509   -1.0896 C   0  0  0  0  0  0  0  0  0  0  0  0
    2.8247    0.6694   -2.1864 C   0  0  0  0  0  0  0  0  0  0  0  0
    2.1752    2.0546   -2.2574 C   0  0  0  0  0  0  0  0  0  0  0  0
    1.4418    2.5127   -0.9924 C   0  0  0  0  0  0  0  0  0  0  0  0
    0.3550    1.5673   -0.4688 C   0  0  0  0  0  0  0  0  0  0  0  0
   -0.7850    1.3424   -1.4653 C   0  0  0  0  0  0  0  0  0  0  0  0
   -1.8671    0.3866   -0.9487 C   0  0  0  0  0  0  0  0  0  0  0  0
   -2.6830    0.9615    0.2126 C   0  0  0  0  0  0  0  0  0  0  0  0
   -3.7718    0.0086    0.7215 C   0  0  0  0  0  0  0  0  0  0  0  0
   -4.9384   -0.1576   -0.2542 C   0  0  0  0  0  0  0  0  0  0  0  0
   -5.9925   -1.1755    0.2009 C   0  0  0  0  0  0  0  0  0  0  0  0
   -6.7969   -0.7544    1.4301 C   0  0  0  0  0  0  0  0  0  0  0  0
   -6.1266   -1.0573    2.7417 C   0  0  0  0  0  0  0  0  0  0  0  0
   -5.9546   -0.2689    3.6567 O   0  0  0  0  0  0  0  0  0  0  0  0
   -5.7581   -2.3445    2.8712 O   0  0  0  0  0  0  0  0  0  0  0  0
    6.8442   -2.1643    2.1177 H   0  0  0  0  0  0  0  0  0  0  0  0
    7.1868   -0.4237    2.1739 H   0  0  0  0  0  0  0  0  0  0  0  0
    6.0509   -1.1428    3.3285 H   0  0  0  0  0  0  0  0  0  0  0  0
    4.4705   -1.6739    1.4991 H   0  0  0  0  0  0  0  0  0  0  0  0
    4.8118    0.0568    1.5713 H   0  0  0  0  0  0  0  0  0  0  0  0
    6.2199   -1.9125   -0.3092 H   0  0  0  0  0  0  0  0  0  0  0  0
    6.4545   -0.1682   -0.2942 H   0  0  0  0  0  0  0  0  0  0  0  0
    4.9778   -0.9864   -2.1332 H   0  0  0  0  0  0  0  0  0  0  0  0
    3.8272   -1.6077   -0.9545 H   0  0  0  0  0  0  0  0  0  0  0  0
    3.4193    0.6991   -0.1110 H   0  0  0  0  0  0  0  0  0  0  0  0
    4.6367    1.3399   -1.2183 H   0  0  0  0  0  0  0  0  0  0  0  0
    2.0570   -0.1002   -2.0464 H   0  0  0  0  0  0  0  0  0  0  0  0
    3.2905    0.4648   -3.1587 H   0  0  0  0  0  0  0  0  0  0  0  0
    1.4809    2.0714   -3.1059 H   0  0  0  0  0  0  0  0  0  0  0  0
    2.9496    2.7962   -2.4916 H   0  0  0  0  0  0  0  0  0  0  0  0
    0.9908    3.4929   -1.1930 H   0  0  0  0  0  0  0  0  0  0  0  0
    2.1727    2.6790   -0.1920 H   0  0  0  0  0  0  0  0  0  0  0  0
   -0.0439    2.0074    0.4521 H   0  0  0  0  0  0  0  0  0  0  0  0
    0.7968    0.6057   -0.1845 H   0  0  0  0  0  0  0  0  0  0  0  0
   -1.2398    2.3035   -1.7337 H   0  0  0  0  0  0  0  0  0  0  0  0
   -0.3818    0.9133   -2.3895 H   0  0  0  0  0  0  0  0  0  0  0  0
   -1.4061   -0.5613   -0.6460 H   0  0  0  0  0  0  0  0  0  0  0  0
   -2.5333    0.1601   -1.7882 H   0  0  0  0  0  0  0  0  0  0  0  0
   -2.0153    1.1759    1.0545 H   0  0  0  0  0  0  0  0  0  0  0  0
   -3.1359    1.9150   -0.0844 H   0  0  0  0  0  0  0  0  0  0  0  0
   -4.1477    0.4205    1.6637 H   0  0  0  0  0  0  0  0  0  0  0  0
   -3.3300   -0.9683    0.9506 H   0  0  0  0  0  0  0  0  0  0  0  0
   -4.5602   -0.4952   -1.2253 H   0  0  0  0  0  0  0  0  0  0  0  0
   -5.4165    0.8145   -0.4260 H   0  0  0  0  0  0  0  0  0  0  0  0
   -5.5182   -2.1523    0.3503 H   0  0  0  0  0  0  0  0  0  0  0  0
   -6.6993   -1.2998   -0.6297 H   0  0  0  0  0  0  0  0  0  0  0  0
   -7.0230    0.3171    1.3917 H   0  0  0  0  0  0  0  0  0  0  0  0
   -7.7579   -1.2827    1.4410 H   0  0  0  0  0  0  0  0  0  0  0  0
   -5.3710   -2.3906    3.7705 H   0  0  0  0  0  0  0  0  0  0  0  0
  1  2  1  0
  2  3  1  0
  3  4  1  0
  4  5  1  0
  5  6  1  0
  6  7  1  0
  7  8  1  0
  8  9  1  0
  9 10  1  0
 10 11  1  0
 11 12  1  0
 12 13  1  0
 13 14  1  0
 14 15  1  0
 15 16  1  0
 16 17  1  0
 17 18  2  0
 17 19  1  0
  1 20  1  0
  1 21  1  0
  1 22  1  0
  2 23  1  0
  2 24  1  0
  3 25  1  0
  3 26  1  0
  4 27  1  0
  4 28  1  0
  5 29  1  0
  5 30  1  0
  6 31  1  0
  6 32  1  0
  7 33  1  0
  7 34  1  0
  8 35  1  0
  8 36  1  0
  9 37  1  0
  9 38  1  0
 10 39  1  0
 10 40  1  0
 11 41  1  0
 11 42  1  0
 12 43  1  0
 12 44  1  0
 13 45  1  0
 13 46  1  0
 14 47  1  0
 14 48  1  0
 15 49  1  0
 15 50  1  0
 16 51  1  0
 16 52  1  0
 19 53  1  0
M  END
$$$$
