CCCCCCCCCCCCCCCC(=O)O
     RDKit          3D

 50 49  0  0  0  0  0  0  0  0999 V2000
    7.3854    1.4332    1.9005 C   0  0  0  0  0  0  0  0  0  0  0  0
    5.8919    1.1509    1.8628 C   0  0  0  0  0  0  0  0  0  0  0  0
    5.4466    0.6757    0.4800 C   0  0  0  0  0  0  0  0  0  0  0  0
    3.9428    0.3932    0.4461 C   0  0  0  0  0  0  0  0  0  0  0  0
    3.5004   -0.0858   -0.9384 C   0  0  0  0  0  0  0  0  0  0  0  0
    1.9842   -0.2733   -1.0600 C   0  0  0  0  0  0  0  0  0  0  0  0
    1.4439   -1.4095   -0.1873 C   0  0  0  0  0  0  0  0  0  0  0  0
   -0.0356   -1.7269   -0.4401 C   0  0  0  0  0  0  0  0  0  0  0  0
   -1.0161   -1.0164    0.4999 C   0  0  0  0  0  0  0  0  0  0  0  0
   -1.1372    0.4999    0.3408 C   0  0  0  0  0  0  0  0  0  0  0  0
   -1.5611    0.9887   -1.0482 C   0  0  0  0  0  0  0  0  0  0  0  0
   -2.8829    0.4239   -1.5779 C   0  0  0  0  0  0  0  0  0  0  0  0
   -4.0870    0.7610   -0.6954 C   0  0  0  0  0  0  0  0  0  0  0  0
   -5.3917    0.2653   -1.3286 C   0  0  0  0  0  0  0  0  0  0  0  0
   -6.6168    0.5971   -0.4772 C   0  0  0  0  0  0  0  0  0  0  0  0
   -6.7158   -0.2501    0.7638 C   0  0  0  0  0  0  0  0  0  0  0  0
   -6.0931   -1.2645    1.0247 O   0  0  0  0  0  0  0  0  0  0  0  0
   -7.6421    0.2229    1.6212 O   0  0  0  0  0  0  0  0  0  0  0  0
    7.9609    0.5332    1.6619 H   0  0  0  0  0  0  0  0  0  0  0  0
    7.6552    2.2144    1.1827 H   0  0  0  0  0  0  0  0  0  0  0  0
    7.6821    1.7716    2.8982 H   0  0  0  0  0  0  0  0  0  0  0  0
    5.3468    2.0615    2.1371 H   0  0  0  0  0  0  0  0  0  0  0  0
    5.6509    0.3897    2.6139 H   0  0  0  0  0  0  0  0  0  0  0  0
    5.9971   -0.2334    0.2086 H   0  0  0  0  0  0  0  0  0  0  0  0
    5.6944    1.4390   -0.2677 H   0  0  0  0  0  0  0  0  0  0  0  0
    3.3925    1.3032    0.7138 H   0  0  0  0  0  0  0  0  0  0  0  0
    3.7045   -0.3651    1.2002 H   0  0  0  0  0  0  0  0  0  0  0  0
    4.0096   -1.0249   -1.1869 H   0  0  0  0  0  0  0  0  0  0  0  0
    3.8139    0.6507   -1.6888 H   0  0  0  0  0  0  0  0  0  0  0  0
    1.7529   -0.4889   -2.1105 H   0  0  0  0  0  0  0  0  0  0  0  0
    1.4899    0.6710   -0.8162 H   0  0  0  0  0  0  0  0  0  0  0  0
    2.0240   -2.3130   -0.4157 H   0  0  0  0  0  0  0  0  0  0  0  0
    1.6039   -1.1960    0.8749 H   0  0  0  0  0  0  0  0  0  0  0  0
   -0.1690   -2.8038   -0.2705 H   0  0  0  0  0  0  0  0  0  0  0  0
   -0.3018   -1.5562   -1.4887 H   0  0  0  0  0  0  0  0  0  0  0  0
   -0.7301   -1.2320    1.5374 H   0  0  0  0  0  0  0  0  0  0  0  0
   -2.0065   -1.4690    0.3691 H   0  0  0  0  0  0  0  0  0  0  0  0
   -1.8559    0.8668    1.0838 H   0  0  0  0  0  0  0  0  0  0  0  0
   -0.1854    0.9716    0.6084 H   0  0  0  0  0  0  0  0  0  0  0  0
   -0.7733    0.7585   -1.7742 H   0  0  0  0  0  0  0  0  0  0  0  0
   -1.6316    2.0835   -1.0194 H   0  0  0  0  0  0  0  0  0  0  0  0
   -2.8053   -0.6622   -1.7022 H   0  0  0  0  0  0  0  0  0  0  0  0
   -3.0486    0.8365   -2.5812 H   0  0  0  0  0  0  0  0  0  0  0  0
   -3.9629    0.3056    0.2924 H   0  0  0  0  0  0  0  0  0  0  0  0
   -4.1409    1.8464   -0.5481 H   0  0  0  0  0  0  0  0  0  0  0  0
   -5.5127    0.7406   -2.3098 H   0  0  0  0  0  0  0  0  0  0  0  0
   -5.3328   -0.8161   -1.5021 H   0  0  0  0  0  0  0  0  0  0  0  0
   -6.5946    1.6536   -0.1877 H   0  0  0  0  0  0  0  0  0  0  0  0
   -7.5228    0.4163   -1.0663 H   0  0  0  0  0  0  0  0  0  0  0  0
   -7.6203   -0.4131    2.3667 H   0  0  0  0  0  0  0  0  0  0  0  0
  1  2  1  0
  2  3  1  0
  3  4  1  0
  4  5  1  0
  5  6  1  0
  6  7  1  0
  7  8  1  0
  8  9  1  0
  9 10  1  0
 10 11  1  0
 11 12  1  0
 12 13  1  0
 13 14  1  0
 14 15  1  0
 15 16  1  0
 16 17  2  0
 16 18  1  0
  1 19  1  0
  1 20  1  0
  1 21  1  0
  2 22  1  0
  2 23  1  0
  3 24  1  0
  3 25  1  0
  4 26  1  0
  4 27  1  0
  5 28  1  0
  5 29  1  0
  6 30  1  0
  6 31  1  0
  7 32  1  0
  7 33  1  0
  8 34  1  0
  8 35  1  0
  9 36  1  0
  9 37  1  0
 10 38  1  0
 10 39  1  0
 11 40  1  0
 11 41  1  0
 12 42  1  0
 12 43  1  0
 13 44  1  0
 13 45  1  0
 14 46  1  0
 14 47  1  0
 15 48  1  0
 15 49  1  0
 18 50  1  0
M  END
$$$$
