CCCCCC/C=C\CCCCCCCC(=O)O
     RDKit          3D

 48 47  0  0  0  0  0  0  0  0999 V2000
   -6.3678   -0.4207    1.0274 C   0  0  0  0  0  0  0  0  0  0  0  0
   -6.1980    1.0679    0.7641 C   0  0  0  0  0  0  0  0  0  0  0  0
   -5.2127    1.3856   -0.3649 C   0  0  0  0  0  0  0  0  0  0  0  0
   -3.7808    1.6826    0.0943 C   0  0  0  0  0  0  0  0  0  0  0  0
   -3.0157    0.5269    0.7412 C   0  0  0  0  0  0  0  0  0  0  0  0
   -2.8114   -0.6654   -0.1975 C   0  0  0  0  0  0  0  0  0  0  0  0
   -2.0021   -1.7410    0.4723 C   0  0  0  0  0  0  0  0  0  0  0  0
   -0.7921   -2.1957    0.1084 C   0  0  0  0  0  0  0  0  0  0  0  0
    0.0268   -1.7558   -1.0724 C   0  0  0  0  0  0  0  0  0  0  0  0
    1.0487   -0.6657   -0.7319 C   0  0  0  0  0  0  0  0  0  0  0  0
    2.1450   -1.1427    0.2268 C   0  0  0  0  0  0  0  0  0  0  0  0
    3.1429   -0.0425    0.6076 C   0  0  0  0  0  0  0  0  0  0  0  0
    4.0275    0.4070   -0.5586 C   0  0  0  0  0  0  0  0  0  0  0  0
    5.0173    1.5177   -0.1816 C   0  0  0  0  0  0  0  0  0  0  0  0
    6.0883    1.1168    0.8328 C   0  0  0  0  0  0  0  0  0  0  0  0
    7.0526    0.0932    0.2957 C   0  0  0  0  0  0  0  0  0  0  0  0
    7.2703   -0.1815   -0.8714 O   0  0  0  0  0  0  0  0  0  0  0  0
    7.7385   -0.5187    1.2813 O   0  0  0  0  0  0  0  0  0  0  0  0
   -6.6731   -0.9473    0.1175 H   0  0  0  0  0  0  0  0  0  0  0  0
   -7.1440   -0.5803    1.7830 H   0  0  0  0  0  0  0  0  0  0  0  0
   -5.4491   -0.8803    1.3972 H   0  0  0  0  0  0  0  0  0  0  0  0
   -7.1816    1.4623    0.4792 H   0  0  0  0  0  0  0  0  0  0  0  0
   -5.9116    1.5825    1.6881 H   0  0  0  0  0  0  0  0  0  0  0  0
   -5.5727    2.2936   -0.8669 H   0  0  0  0  0  0  0  0  0  0  0  0
   -5.2239    0.6000   -1.1283 H   0  0  0  0  0  0  0  0  0  0  0  0
   -3.2098    2.0357   -0.7741 H   0  0  0  0  0  0  0  0  0  0  0  0
   -3.8038    2.5213    0.8017 H   0  0  0  0  0  0  0  0  0  0  0  0
   -3.5180    0.2131    1.6628 H   0  0  0  0  0  0  0  0  0  0  0  0
   -2.0328    0.9072    1.0505 H   0  0  0  0  0  0  0  0  0  0  0  0
   -2.3395   -0.3182   -1.1215 H   0  0  0  0  0  0  0  0  0  0  0  0
   -3.7756   -1.1001   -0.4816 H   0  0  0  0  0  0  0  0  0  0  0  0
   -2.4623   -2.1843    1.3553 H   0  0  0  0  0  0  0  0  0  0  0  0
   -0.3417   -2.9769    0.7203 H   0  0  0  0  0  0  0  0  0  0  0  0
    0.5433   -2.6326   -1.4825 H   0  0  0  0  0  0  0  0  0  0  0  0
   -0.6217   -1.3968   -1.8789 H   0  0  0  0  0  0  0  0  0  0  0  0
    1.5029   -0.3330   -1.6718 H   0  0  0  0  0  0  0  0  0  0  0  0
    0.5344    0.2033   -0.3029 H   0  0  0  0  0  0  0  0  0  0  0  0
    1.6864   -1.5085    1.1530 H   0  0  0  0  0  0  0  0  0  0  0  0
    2.6823   -1.9900   -0.2161 H   0  0  0  0  0  0  0  0  0  0  0  0
    3.7727   -0.4363    1.4128 H   0  0  0  0  0  0  0  0  0  0  0  0
    2.6023    0.8184    1.0187 H   0  0  0  0  0  0  0  0  0  0  0  0
    3.3971    0.7944   -1.3667 H   0  0  0  0  0  0  0  0  0  0  0  0
    4.5647   -0.4558   -0.9682 H   0  0  0  0  0  0  0  0  0  0  0  0
    4.4565    2.3711    0.2191 H   0  0  0  0  0  0  0  0  0  0  0  0
    5.5046    1.8698   -1.0996 H   0  0  0  0  0  0  0  0  0  0  0  0
    5.6264    0.7323    1.7470 H   0  0  0  0  0  0  0  0  0  0  0  0
    6.6754    2.0024    1.1016 H   0  0  0  0  0  0  0  0  0  0  0  0
    8.3350   -1.1349    0.8066 H   0  0  0  0  0  0  0  0  0  0  0  0
  1  2  1  0
  2  3  1  0
  3  4  1  0
  4  5  1  0
  5  6  1  0
  6  7  1  0
  7  8  2  0
  8  9  1  0
  9 10  1  0
 10 11  1  0
 11 12  1  0
 12 13  1  0
 13 14  1  0
 14 15  1  0
 15 16  1  0
 16 17  2  0
 16 18  1  0
  1 19  1  0
  1 20  1  0
  1 21  1  0
  2 22  1  0
  2 23  1  0
  3 24  1  0
  3 25  1  0
  4 26  1  0
  4 27  1  0
  5 28  1  0
  5 29  1  0
  6 30  1  0
  6 31  1  0
  7 32  1  0
  8 33  1  0
  9 34  1  0
  9 35  1  0
 10 36  1  0
 10 37  1  0
 11 38  1  0
 11 39  1  0
 12 40  1  0
 12 41  1  0
 13 42  1  0
 13 43  1  0
 14 44  1  0
 14 45  1  0
 15 46  1  0
 15 47  1  0
 18 48  1  0
M  END
$$$$
