CCC=CCC=CCC=CCCCCCCCC(=O)O
     RDKit          3D

 50 49  0  0  0  0  0  0  0  0999 V2000
    6.6398    0.4063    1.9313 C   0  0  0  0  0  0  0  0  0  0  0  0
    7.7002   -0.1449    0.9950 C   0  0  0  0  0  0  0  0  0  0  0  0
    7.4635   -0.1335   -0.4909 C   0  0  0  0  0  0  0  0  0  0  0  0
    6.4700    0.3327   -1.2663 C   0  0  0  0  0  0  0  0  0  0  0  0
    5.2116    1.0699   -0.9197 C   0  0  0  0  0  0  0  0  0  0  0  0
    4.0141    0.1710   -1.0241 C   0  0  0  0  0  0  0  0  0  0  0  0
    3.0030    0.3537   -1.8898 C   0  0  0  0  0  0  0  0  0  0  0  0
    1.8073   -0.5498   -1.9930 C   0  0  0  0  0  0  0  0  0  0  0  0
    0.4887    0.0821   -1.6235 C   0  0  0  0  0  0  0  0  0  0  0  0
    0.2777    1.3007   -1.0963 C   0  0  0  0  0  0  0  0  0  0  0  0
   -1.0425    1.9281   -0.7268 C   0  0  0  0  0  0  0  0  0  0  0  0
   -2.2991    1.0472   -0.7254 C   0  0  0  0  0  0  0  0  0  0  0  0
   -2.3301    0.0549    0.4426 C   0  0  0  0  0  0  0  0  0  0  0  0
   -3.5188   -0.9101    0.3870 C   0  0  0  0  0  0  0  0  0  0  0  0
   -4.8753   -0.2181    0.5417 C   0  0  0  0  0  0  0  0  0  0  0  0
   -6.0143   -1.2424    0.5974 C   0  0  0  0  0  0  0  0  0  0  0  0
   -7.3880   -0.5831    0.7175 C   0  0  0  0  0  0  0  0  0  0  0  0
   -7.6391    0.0069    2.0799 C   0  0  0  0  0  0  0  0  0  0  0  0
   -7.0027   -0.1812    3.1018 O   0  0  0  0  0  0  0  0  0  0  0  0
   -8.7279    0.8014    2.0893 O   0  0  0  0  0  0  0  0  0  0  0  0
    6.5272    1.4878    1.8111 H   0  0  0  0  0  0  0  0  0  0  0  0
    5.6725   -0.0813    1.7775 H   0  0  0  0  0  0  0  0  0  0  0  0
    6.9352    0.2286    2.9711 H   0  0  0  0  0  0  0  0  0  0  0  0
    7.8827   -1.1888    1.2811 H   0  0  0  0  0  0  0  0  0  0  0  0
    8.6381    0.3911    1.1864 H   0  0  0  0  0  0  0  0  0  0  0  0
    8.2759   -0.6273   -1.0301 H   0  0  0  0  0  0  0  0  0  0  0  0
    6.5802    0.1645   -2.3395 H   0  0  0  0  0  0  0  0  0  0  0  0
    5.2408    1.5088    0.0774 H   0  0  0  0  0  0  0  0  0  0  0  0
    5.1180    1.9204   -1.6070 H   0  0  0  0  0  0  0  0  0  0  0  0
    3.9838   -0.6680   -0.3314 H   0  0  0  0  0  0  0  0  0  0  0  0
    3.0315    1.1918   -2.5832 H   0  0  0  0  0  0  0  0  0  0  0  0
    1.9434   -1.4429   -1.3709 H   0  0  0  0  0  0  0  0  0  0  0  0
    1.7403   -0.9003   -3.0301 H   0  0  0  0  0  0  0  0  0  0  0  0
   -0.3640   -0.5642   -1.8197 H   0  0  0  0  0  0  0  0  0  0  0  0
    1.1341    1.9447   -0.9011 H   0  0  0  0  0  0  0  0  0  0  0  0
   -0.9336    2.3814    0.2667 H   0  0  0  0  0  0  0  0  0  0  0  0
   -1.2089    2.7583   -1.4250 H   0  0  0  0  0  0  0  0  0  0  0  0
   -2.3995    0.5201   -1.6812 H   0  0  0  0  0  0  0  0  0  0  0  0
   -3.1668    1.7132   -0.6468 H   0  0  0  0  0  0  0  0  0  0  0  0
   -1.4127   -0.5438    0.4513 H   0  0  0  0  0  0  0  0  0  0  0  0
   -2.3507    0.6061    1.3908 H   0  0  0  0  0  0  0  0  0  0  0  0
   -3.4932   -1.4691   -0.5564 H   0  0  0  0  0  0  0  0  0  0  0  0
   -3.3984   -1.6452    1.1926 H   0  0  0  0  0  0  0  0  0  0  0  0
   -5.0477    0.4604   -0.3012 H   0  0  0  0  0  0  0  0  0  0  0  0
   -4.8715    0.3902    1.4532 H   0  0  0  0  0  0  0  0  0  0  0  0
   -5.9966   -1.8418   -0.3211 H   0  0  0  0  0  0  0  0  0  0  0  0
   -5.8524   -1.9336    1.4334 H   0  0  0  0  0  0  0  0  0  0  0  0
   -8.1641   -1.3365    0.5424 H   0  0  0  0  0  0  0  0  0  0  0  0
   -7.4908    0.2043   -0.0373 H   0  0  0  0  0  0  0  0  0  0  0  0
   -8.7907    1.1048    3.0193 H   0  0  0  0  0  0  0  0  0  0  0  0
  1  2  1  0
  2  3  1  0
  3  4  2  3
  4  5  1  0
  5  6  1  0
  6  7  2  3
  7  8  1  0
  8  9  1  0
  9 10  2  3
 10 11  1  0
 11 12  1  0
 12 13  1  0
 13 14  1  0
 14 15  1  0
 15 16  1  0
 16 17  1  0
 17 18  1  0
 18 19  2  0
 18 20  1  0
  1 21  1  0
  1 22  1  0
  1 23  1  0
  2 24  1  0
  2 25  1  0
  3 26  1  0
  4 27  1  0
  5 28  1  0
  5 29  1  0
  6 30  1  0
  7 31  1  0
  8 32  1  0
  8 33  1  0
  9 34  1  0
 10 35  1  0
 11 36  1  0
 11 37  1  0
 12 38  1  0
 12 39  1  0
 13 40  1  0
 13 41  1  0
 14 42  1  0
 14 43  1  0
 15 44  1  0
 15 45  1  0
 16 46  1  0
 16 47  1  0
 17 48  1  0
 17 49  1  0
 20 50  1  0
M  END
$$$$
