CCCCC/C=C\C/C=C\CCCC/C=C\CC(=O)OC
     RDKit          3D

 53 52  0  0  0  0  0  0  0  0999 V2000
    3.2198    1.3880    3.8347 C   0  0  0  0  0  0  0  0  0  0  0  0
    3.3445    0.9059    2.3975 C   0  0  0  0  0  0  0  0  0  0  0  0
    4.5074   -0.0743    2.2375 C   0  0  0  0  0  0  0  0  0  0  0  0
    4.6203   -0.6573    0.8257 C   0  0  0  0  0  0  0  0  0  0  0  0
    5.0440    0.3734   -0.2231 C   0  0  0  0  0  0  0  0  0  0  0  0
    5.2330   -0.2667   -1.5682 C   0  0  0  0  0  0  0  0  0  0  0  0
    4.4066   -0.3290   -2.6268 C   0  0  0  0  0  0  0  0  0  0  0  0
    3.0079    0.1631   -2.8897 C   0  0  0  0  0  0  0  0  0  0  0  0
    2.3840    1.0456   -1.8538 C   0  0  0  0  0  0  0  0  0  0  0  0
    1.4049    0.7258   -0.9908 C   0  0  0  0  0  0  0  0  0  0  0  0
    0.7648   -0.6220   -0.8127 C   0  0  0  0  0  0  0  0  0  0  0  0
   -0.6169   -0.7297   -1.4653 C   0  0  0  0  0  0  0  0  0  0  0  0
   -1.6666    0.1798   -0.8146 C   0  0  0  0  0  0  0  0  0  0  0  0
   -3.0495    0.0688   -1.4646 C   0  0  0  0  0  0  0  0  0  0  0  0
   -3.6867   -1.2803   -1.2836 C   0  0  0  0  0  0  0  0  0  0  0  0
   -4.6211   -1.6262   -0.3824 C   0  0  0  0  0  0  0  0  0  0  0  0
   -5.2256   -0.7630    0.6911 C   0  0  0  0  0  0  0  0  0  0  0  0
   -6.7187   -0.5578    0.4832 C   0  0  0  0  0  0  0  0  0  0  0  0
   -7.4378   -1.2063   -0.2650 O   0  0  0  0  0  0  0  0  0  0  0  0
   -7.1537    0.4457    1.3025 O   0  0  0  0  0  0  0  0  0  0  0  0
   -8.5532    0.7113    1.2003 C   0  0  0  0  0  0  0  0  0  0  0  0
    3.0387    0.5502    4.5157 H   0  0  0  0  0  0  0  0  0  0  0  0
    4.1311    1.9022    4.1563 H   0  0  0  0  0  0  0  0  0  0  0  0
    2.3835    2.0879    3.9281 H   0  0  0  0  0  0  0  0  0  0  0  0
    3.4842    1.7759    1.7476 H   0  0  0  0  0  0  0  0  0  0  0  0
    2.4071    0.4223    2.1003 H   0  0  0  0  0  0  0  0  0  0  0  0
    4.3699   -0.9058    2.9401 H   0  0  0  0  0  0  0  0  0  0  0  0
    5.4494    0.4165    2.5107 H   0  0  0  0  0  0  0  0  0  0  0  0
    3.6653   -1.1162    0.5415 H   0  0  0  0  0  0  0  0  0  0  0  0
    5.3599   -1.4683    0.8510 H   0  0  0  0  0  0  0  0  0  0  0  0
    6.0021    0.8199    0.0727 H   0  0  0  0  0  0  0  0  0  0  0  0
    4.3427    1.2062   -0.2670 H   0  0  0  0  0  0  0  0  0  0  0  0
    6.2014   -0.7571   -1.6810 H   0  0  0  0  0  0  0  0  0  0  0  0
    4.8031   -0.8714   -3.4883 H   0  0  0  0  0  0  0  0  0  0  0  0
    3.0277    0.7322   -3.8284 H   0  0  0  0  0  0  0  0  0  0  0  0
    2.3749   -0.7077   -3.0940 H   0  0  0  0  0  0  0  0  0  0  0  0
    2.7583    2.0686   -1.8383 H   0  0  0  0  0  0  0  0  0  0  0  0
    1.0534    1.5048   -0.3154 H   0  0  0  0  0  0  0  0  0  0  0  0
    0.6843   -0.8281    0.2618 H   0  0  0  0  0  0  0  0  0  0  0  0
    1.4087   -1.4119   -1.2153 H   0  0  0  0  0  0  0  0  0  0  0  0
   -0.5404   -0.4982   -2.5351 H   0  0  0  0  0  0  0  0  0  0  0  0
   -0.9407   -1.7745   -1.3901 H   0  0  0  0  0  0  0  0  0  0  0  0
   -1.7409   -0.0494    0.2559 H   0  0  0  0  0  0  0  0  0  0  0  0
   -1.3444    1.2248   -0.8926 H   0  0  0  0  0  0  0  0  0  0  0  0
   -3.6945    0.8578   -1.0628 H   0  0  0  0  0  0  0  0  0  0  0  0
   -2.9712    0.2740   -2.5395 H   0  0  0  0  0  0  0  0  0  0  0  0
   -3.3600   -2.0459   -1.9875 H   0  0  0  0  0  0  0  0  0  0  0  0
   -4.9955   -2.6502   -0.4114 H   0  0  0  0  0  0  0  0  0  0  0  0
   -4.7425    0.2171    0.7361 H   0  0  0  0  0  0  0  0  0  0  0  0
   -5.0857   -1.2547    1.6601 H   0  0  0  0  0  0  0  0  0  0  0  0
   -8.8123    1.0194    0.1825 H   0  0  0  0  0  0  0  0  0  0  0  0
   -9.1326   -0.1675    1.5001 H   0  0  0  0  0  0  0  0  0  0  0  0
   -8.7926    1.5324    1.8816 H   0  0  0  0  0  0  0  0  0  0  0  0
  1  2  1  0
  2  3  1  0
  3  4  1  0
  4  5  1  0
  5  6  1  0
  6  7  2  0
  7  8  1  0
  8  9  1  0
  9 10  2  0
 10 11  1  0
 11 12  1  0
 12 13  1  0
 13 14  1  0
 14 15  1  0
 15 16  2  0
 16 17  1  0
 17 18  1  0
 18 19  2  0
 18 20  1  0
 20 21  1  0
  1 22  1  0
  1 23  1  0
  1 24  1  0
  2 25  1  0
  2 26  1  0
  3 27  1  0
  3 28  1  0
  4 29  1  0
  4 30  1  0
  5 31  1  0
  5 32  1  0
  6 33  1  0
  7 34  1  0
  8 35  1  0
  8 36  1  0
  9 37  1  0
 10 38  1  0
 11 39  1  0
 11 40  1  0
 12 41  1  0
 12 42  1  0
 13 43  1  0
 13 44  1  0
 14 45  1  0
 14 46  1  0
 15 47  1  0
 16 48  1  0
 17 49  1  0
 17 50  1  0
 21 51  1  0
 21 52  1  0
 21 53  1  0
M  END
$$$$
