CCCCCC/C=C\CCCCCCCC(=O)OC
     RDKit          3D

 51 50  0  0  0  0  0  0  0  0999 V2000
   -7.9138    1.6794   -0.8407 C   0  0  0  0  0  0  0  0  0  0  0  0
   -6.4681    1.2426   -0.6582 C   0  0  0  0  0  0  0  0  0  0  0  0
   -6.2350   -0.1606   -1.2194 C   0  0  0  0  0  0  0  0  0  0  0  0
   -4.7699   -0.6028   -1.1642 C   0  0  0  0  0  0  0  0  0  0  0  0
   -4.2403   -0.7786    0.2611 C   0  0  0  0  0  0  0  0  0  0  0  0
   -2.8118   -1.3271    0.2554 C   0  0  0  0  0  0  0  0  0  0  0  0
   -2.2964   -1.5180    1.6537 C   0  0  0  0  0  0  0  0  0  0  0  0
   -1.3638   -0.7867    2.2852 C   0  0  0  0  0  0  0  0  0  0  0  0
   -0.6522    0.4311    1.7660 C   0  0  0  0  0  0  0  0  0  0  0  0
    0.8452    0.1991    1.5360 C   0  0  0  0  0  0  0  0  0  0  0  0
    1.1294   -0.7568    0.3724 C   0  0  0  0  0  0  0  0  0  0  0  0
    2.6223   -1.0253    0.1574 C   0  0  0  0  0  0  0  0  0  0  0  0
    3.4025    0.2050   -0.3108 C   0  0  0  0  0  0  0  0  0  0  0  0
    4.8570   -0.1489   -0.6254 C   0  0  0  0  0  0  0  0  0  0  0  0
    5.6383    1.0752   -1.0873 C   0  0  0  0  0  0  0  0  0  0  0  0
    7.0590    0.7043   -1.4236 C   0  0  0  0  0  0  0  0  0  0  0  0
    7.4600    0.4775   -2.5569 O   0  0  0  0  0  0  0  0  0  0  0  0
    7.8135    0.6401   -0.2921 O   0  0  0  0  0  0  0  0  0  0  0  0
    9.1749    0.2770   -0.5239 C   0  0  0  0  0  0  0  0  0  0  0  0
   -8.1860    1.7032   -1.9007 H   0  0  0  0  0  0  0  0  0  0  0  0
   -8.0610    2.6832   -0.4300 H   0  0  0  0  0  0  0  0  0  0  0  0
   -8.5974    0.9974   -0.3251 H   0  0  0  0  0  0  0  0  0  0  0  0
   -5.8099    1.9599   -1.1618 H   0  0  0  0  0  0  0  0  0  0  0  0
   -6.2267    1.2713    0.4096 H   0  0  0  0  0  0  0  0  0  0  0  0
   -6.5595   -0.1852   -2.2672 H   0  0  0  0  0  0  0  0  0  0  0  0
   -6.8582   -0.8841   -0.6797 H   0  0  0  0  0  0  0  0  0  0  0  0
   -4.6812   -1.5568   -1.6987 H   0  0  0  0  0  0  0  0  0  0  0  0
   -4.1471    0.1206   -1.7045 H   0  0  0  0  0  0  0  0  0  0  0  0
   -4.8981   -1.4599    0.8152 H   0  0  0  0  0  0  0  0  0  0  0  0
   -4.2545    0.1833    0.7869 H   0  0  0  0  0  0  0  0  0  0  0  0
   -2.7898   -2.3001   -0.2510 H   0  0  0  0  0  0  0  0  0  0  0  0
   -2.1610   -0.6684   -0.3283 H   0  0  0  0  0  0  0  0  0  0  0  0
   -2.7266   -2.3620    2.1927 H   0  0  0  0  0  0  0  0  0  0  0  0
   -1.0956   -1.0797    3.3001 H   0  0  0  0  0  0  0  0  0  0  0  0
   -0.7699    1.2245    2.5149 H   0  0  0  0  0  0  0  0  0  0  0  0
   -1.1120    0.8167    0.8506 H   0  0  0  0  0  0  0  0  0  0  0  0
    1.3085   -0.1855    2.4531 H   0  0  0  0  0  0  0  0  0  0  0  0
    1.3053    1.1725    1.3322 H   0  0  0  0  0  0  0  0  0  0  0  0
    0.6421   -1.7204    0.5619 H   0  0  0  0  0  0  0  0  0  0  0  0
    0.6913   -0.3573   -0.5503 H   0  0  0  0  0  0  0  0  0  0  0  0
    2.7203   -1.8174   -0.5956 H   0  0  0  0  0  0  0  0  0  0  0  0
    3.0633   -1.4143    1.0833 H   0  0  0  0  0  0  0  0  0  0  0  0
    3.3835    0.9800    0.4633 H   0  0  0  0  0  0  0  0  0  0  0  0
    2.9257    0.6248   -1.2047 H   0  0  0  0  0  0  0  0  0  0  0  0
    4.8921   -0.9223   -1.4029 H   0  0  0  0  0  0  0  0  0  0  0  0
    5.3336   -0.5791    0.2644 H   0  0  0  0  0  0  0  0  0  0  0  0
    5.6455    1.8606   -0.3227 H   0  0  0  0  0  0  0  0  0  0  0  0
    5.1826    1.5147   -1.9823 H   0  0  0  0  0  0  0  0  0  0  0  0
    9.6891    0.2569    0.4410 H   0  0  0  0  0  0  0  0  0  0  0  0
    9.2349   -0.7211   -0.9690 H   0  0  0  0  0  0  0  0  0  0  0  0
    9.6662    1.0176   -1.1627 H   0  0  0  0  0  0  0  0  0  0  0  0
  1  2  1  0
  2  3  1  0
  3  4  1  0
  4  5  1  0
  5  6  1  0
  6  7  1  0
  7  8  2  0
  8  9  1  0
  9 10  1  0
 10 11  1  0
 11 12  1  0
 12 13  1  0
 13 14  1  0
 14 15  1  0
 15 16  1  0
 16 17  2  0
 16 18  1  0
 18 19  1  0
  1 20  1  0
  1 21  1  0
  1 22  1  0
  2 23  1  0
  2 24  1  0
  3 25  1  0
  3 26  1  0
  4 27  1  0
  4 28  1  0
  5 29  1  0
  5 30  1  0
  6 31  1  0
  6 32  1  0
  7 33  1  0
  8 34  1  0
  9 35  1  0
  9 36  1  0
 10 37  1  0
 10 38  1  0
 11 39  1  0
 11 40  1  0
 12 41  1  0
 12 42  1  0
 13 43  1  0
 13 44  1  0
 14 45  1  0
 14 46  1  0
 15 47  1  0
 15 48  1  0
 19 49  1  0
 19 50  1  0
 19 51  1  0
M  END
$$$$
