CCCCCCCCCCCCC(=O)O
     RDKit          3D

 41 40  0  0  0  0  0  0  0  0999 V2000
   -5.6837   -0.3103   -1.6104 C   0  0  0  0  0  0  0  0  0  0  0  0
   -5.8016    0.5584   -0.3675 C   0  0  0  0  0  0  0  0  0  0  0  0
   -4.8103    0.1843    0.7366 C   0  0  0  0  0  0  0  0  0  0  0  0
   -3.3494    0.4323    0.3502 C   0  0  0  0  0  0  0  0  0  0  0  0
   -2.4112    0.1389    1.5243 C   0  0  0  0  0  0  0  0  0  0  0  0
   -0.9451    0.4806    1.2365 C   0  0  0  0  0  0  0  0  0  0  0  0
   -0.3092   -0.4196    0.1737 C   0  0  0  0  0  0  0  0  0  0  0  0
    1.1580   -0.0796   -0.1146 C   0  0  0  0  0  0  0  0  0  0  0  0
    2.0992   -0.4115    1.0466 C   0  0  0  0  0  0  0  0  0  0  0  0
    3.5651   -0.0713    0.7546 C   0  0  0  0  0  0  0  0  0  0  0  0
    4.1913   -0.9554   -0.3297 C   0  0  0  0  0  0  0  0  0  0  0  0
    5.6877   -0.6914   -0.5027 C   0  0  0  0  0  0  0  0  0  0  0  0
    5.9773    0.6258   -1.1724 C   0  0  0  0  0  0  0  0  0  0  0  0
    5.1958    1.3456   -1.7691 O   0  0  0  0  0  0  0  0  0  0  0  0
    7.2796    0.9605   -1.0785 O   0  0  0  0  0  0  0  0  0  0  0  0
   -5.7751   -1.3715   -1.3585 H   0  0  0  0  0  0  0  0  0  0  0  0
   -6.4797   -0.0607   -2.3194 H   0  0  0  0  0  0  0  0  0  0  0  0
   -4.7279   -0.1556   -2.1193 H   0  0  0  0  0  0  0  0  0  0  0  0
   -6.8182    0.4586    0.0311 H   0  0  0  0  0  0  0  0  0  0  0  0
   -5.6721    1.6111   -0.6445 H   0  0  0  0  0  0  0  0  0  0  0  0
   -5.0517    0.7776    1.6273 H   0  0  0  0  0  0  0  0  0  0  0  0
   -4.9464   -0.8687    1.0120 H   0  0  0  0  0  0  0  0  0  0  0  0
   -3.2256    1.4743    0.0325 H   0  0  0  0  0  0  0  0  0  0  0  0
   -3.0841   -0.2038   -0.4998 H   0  0  0  0  0  0  0  0  0  0  0  0
   -2.7323    0.7278    2.3926 H   0  0  0  0  0  0  0  0  0  0  0  0
   -2.4941   -0.9165    1.8110 H   0  0  0  0  0  0  0  0  0  0  0  0
   -0.3937    0.3829    2.1781 H   0  0  0  0  0  0  0  0  0  0  0  0
   -0.8657    1.5305    0.9299 H   0  0  0  0  0  0  0  0  0  0  0  0
   -0.8610   -0.3176   -0.7675 H   0  0  0  0  0  0  0  0  0  0  0  0
   -0.3911   -1.4702    0.4773 H   0  0  0  0  0  0  0  0  0  0  0  0
    1.2460    0.9824   -0.3738 H   0  0  0  0  0  0  0  0  0  0  0  0
    1.4591   -0.6482   -1.0015 H   0  0  0  0  0  0  0  0  0  0  0  0
    2.0118   -1.4738    1.3044 H   0  0  0  0  0  0  0  0  0  0  0  0
    1.8005    0.1557    1.9349 H   0  0  0  0  0  0  0  0  0  0  0  0
    4.1335   -0.1954    1.6849 H   0  0  0  0  0  0  0  0  0  0  0  0
    3.6442    0.9860    0.4768 H   0  0  0  0  0  0  0  0  0  0  0  0
    4.0554   -2.0076   -0.0519 H   0  0  0  0  0  0  0  0  0  0  0  0
    3.6792   -0.8066   -1.2865 H   0  0  0  0  0  0  0  0  0  0  0  0
    6.1861   -0.7137    0.4727 H   0  0  0  0  0  0  0  0  0  0  0  0
    6.1202   -1.4774   -1.1320 H   0  0  0  0  0  0  0  0  0  0  0  0
    7.3393    1.8135   -1.5578 H   0  0  0  0  0  0  0  0  0  0  0  0
  1  2  1  0
  2  3  1  0
  3  4  1  0
  4  5  1  0
  5  6  1  0
  6  7  1  0
  7  8  1  0
  8  9  1  0
  9 10  1  0
 10 11  1  0
 11 12  1  0
 12 13  1  0
 13 14  2  0
 13 15  1  0
  1 16  1  0
  1 17  1  0
  1 18  1  0
  2 19  1  0
  2 20  1  0
  3 21  1  0
  3 22  1  0
  4 23  1  0
  4 24  1  0
  5 25  1  0
  5 26  1  0
  6 27  1  0
  6 28  1  0
  7 29  1  0
  7 30  1  0
  8 31  1  0
  8 32  1  0
  9 33  1  0
  9 34  1  0
 10 35  1  0
 10 36  1  0
 11 37  1  0
 11 38  1  0
 12 39  1  0
 12 40  1  0
 15 41  1  0
M  END
$$$$
