CCCCCCCCCCCCCCCCCCCCC(=O)O
     RDKit          3D

 65 64  0  0  0  0  0  0  0  0999 V2000
   -0.4004    0.4531    2.8308 C   0  0  0  0  0  0  0  0  0  0  0  0
   -1.7686    0.2906    2.1871 C   0  0  0  0  0  0  0  0  0  0  0  0
   -1.9621   -1.1199    1.6318 C   0  0  0  0  0  0  0  0  0  0  0  0
   -3.3463   -1.2899    1.0007 C   0  0  0  0  0  0  0  0  0  0  0  0
   -3.4985   -2.6829    0.3858 C   0  0  0  0  0  0  0  0  0  0  0  0
   -4.8801   -2.9344   -0.2215 C   0  0  0  0  0  0  0  0  0  0  0  0
   -5.2460   -2.0895   -1.4481 C   0  0  0  0  0  0  0  0  0  0  0  0
   -4.3307   -2.3087   -2.6594 C   0  0  0  0  0  0  0  0  0  0  0  0
   -3.3066   -1.1841   -2.8334 C   0  0  0  0  0  0  0  0  0  0  0  0
   -2.3245   -1.4875   -3.9664 C   0  0  0  0  0  0  0  0  0  0  0  0
   -1.3871   -0.3197   -4.2947 C   0  0  0  0  0  0  0  0  0  0  0  0
   -0.6137    0.2788   -3.1145 C   0  0  0  0  0  0  0  0  0  0  0  0
    0.2925   -0.7261   -2.3991 C   0  0  0  0  0  0  0  0  0  0  0  0
    0.9635   -0.1428   -1.1505 C   0  0  0  0  0  0  0  0  0  0  0  0
    2.0344    0.9050   -1.4618 C   0  0  0  0  0  0  0  0  0  0  0  0
    2.6336    1.5484   -0.2050 C   0  0  0  0  0  0  0  0  0  0  0  0
    3.4583    0.5784    0.6451 C   0  0  0  0  0  0  0  0  0  0  0  0
    4.0282    1.2190    1.9152 C   0  0  0  0  0  0  0  0  0  0  0  0
    5.0831    2.2912    1.6386 C   0  0  0  0  0  0  0  0  0  0  0  0
    5.6993    2.8056    2.9348 C   0  0  0  0  0  0  0  0  0  0  0  0
    6.7463    3.8421    2.6483 C   0  0  0  0  0  0  0  0  0  0  0  0
    7.9468    3.6496    2.5574 O   0  0  0  0  0  0  0  0  0  0  0  0
    6.2278    5.0703    2.4630 O   0  0  0  0  0  0  0  0  0  0  0  0
   -0.2786    1.4724    3.2105 H   0  0  0  0  0  0  0  0  0  0  0  0
   -0.2774   -0.2391    3.6698 H   0  0  0  0  0  0  0  0  0  0  0  0
    0.3996    0.2622    2.1091 H   0  0  0  0  0  0  0  0  0  0  0  0
   -2.5442    0.5087    2.9303 H   0  0  0  0  0  0  0  0  0  0  0  0
   -1.8755    1.0252    1.3804 H   0  0  0  0  0  0  0  0  0  0  0  0
   -1.1888   -1.3276    0.8826 H   0  0  0  0  0  0  0  0  0  0  0  0
   -1.8346   -1.8537    2.4370 H   0  0  0  0  0  0  0  0  0  0  0  0
   -4.1182   -1.1388    1.7650 H   0  0  0  0  0  0  0  0  0  0  0  0
   -3.4948   -0.5179    0.2386 H   0  0  0  0  0  0  0  0  0  0  0  0
   -2.7188   -2.8531   -0.3649 H   0  0  0  0  0  0  0  0  0  0  0  0
   -3.3339   -3.4317    1.1712 H   0  0  0  0  0  0  0  0  0  0  0  0
   -4.9453   -3.9945   -0.4980 H   0  0  0  0  0  0  0  0  0  0  0  0
   -5.6430   -2.7745    0.5508 H   0  0  0  0  0  0  0  0  0  0  0  0
   -6.2633   -2.3811   -1.7407 H   0  0  0  0  0  0  0  0  0  0  0  0
   -5.3030   -1.0279   -1.1829 H   0  0  0  0  0  0  0  0  0  0  0  0
   -3.8288   -3.2811   -2.5941 H   0  0  0  0  0  0  0  0  0  0  0  0
   -4.9529   -2.3403   -3.5630 H   0  0  0  0  0  0  0  0  0  0  0  0
   -2.7516   -1.0445   -1.9025 H   0  0  0  0  0  0  0  0  0  0  0  0
   -3.8324   -0.2443   -3.0413 H   0  0  0  0  0  0  0  0  0  0  0  0
   -1.7346   -2.3760   -3.7120 H   0  0  0  0  0  0  0  0  0  0  0  0
   -2.8834   -1.7411   -4.8760 H   0  0  0  0  0  0  0  0  0  0  0  0
   -0.6740   -0.6509   -5.0598 H   0  0  0  0  0  0  0  0  0  0  0  0
   -1.9788    0.4824   -4.7539 H   0  0  0  0  0  0  0  0  0  0  0  0
   -1.3153    0.7240   -2.3995 H   0  0  0  0  0  0  0  0  0  0  0  0
   -0.0077    1.1055   -3.5026 H   0  0  0  0  0  0  0  0  0  0  0  0
    1.0539   -1.1024   -3.0925 H   0  0  0  0  0  0  0  0  0  0  0  0
   -0.2986   -1.5907   -2.0772 H   0  0  0  0  0  0  0  0  0  0  0  0
    1.4169   -0.9746   -0.6001 H   0  0  0  0  0  0  0  0  0  0  0  0
    0.1992    0.2925   -0.4965 H   0  0  0  0  0  0  0  0  0  0  0  0
    2.8327    0.4528   -2.0624 H   0  0  0  0  0  0  0  0  0  0  0  0
    1.5993    1.7083   -2.0664 H   0  0  0  0  0  0  0  0  0  0  0  0
    1.8304    1.9836    0.4018 H   0  0  0  0  0  0  0  0  0  0  0  0
    3.2696    2.3790   -0.5312 H   0  0  0  0  0  0  0  0  0  0  0  0
    4.2750    0.1607    0.0443 H   0  0  0  0  0  0  0  0  0  0  0  0
    2.8310   -0.2640    0.9565 H   0  0  0  0  0  0  0  0  0  0  0  0
    3.2114    1.6464    2.5096 H   0  0  0  0  0  0  0  0  0  0  0  0
    4.4785    0.4248    2.5237 H   0  0  0  0  0  0  0  0  0  0  0  0
    4.6372    3.1312    1.0941 H   0  0  0  0  0  0  0  0  0  0  0  0
    5.8706    1.8810    0.9943 H   0  0  0  0  0  0  0  0  0  0  0  0
    4.9399    3.2395    3.5954 H   0  0  0  0  0  0  0  0  0  0  0  0
    6.1742    1.9916    3.4944 H   0  0  0  0  0  0  0  0  0  0  0  0
    7.0088    5.6318    2.2744 H   0  0  0  0  0  0  0  0  0  0  0  0
  1  2  1  0
  2  3  1  0
  3  4  1  0
  4  5  1  0
  5  6  1  0
  6  7  1  0
  7  8  1  0
  8  9  1  0
  9 10  1  0
 10 11  1  0
 11 12  1  0
 12 13  1  0
 13 14  1  0
 14 15  1  0
 15 16  1  0
 16 17  1  0
 17 18  1  0
 18 19  1  0
 19 20  1  0
 20 21  1  0
 21 22  2  0
 21 23  1  0
  1 24  1  0
  1 25  1  0
  1 26  1  0
  2 27  1  0
  2 28  1  0
  3 29  1  0
  3 30  1  0
  4 31  1  0
  4 32  1  0
  5 33  1  0
  5 34  1  0
  6 35  1  0
  6 36  1  0
  7 37  1  0
  7 38  1  0
  8 39  1  0
  8 40  1  0
  9 41  1  0
  9 42  1  0
 10 43  1  0
 10 44  1  0
 11 45  1  0
 11 46  1  0
 12 47  1  0
 12 48  1  0
 13 49  1  0
 13 50  1  0
 14 51  1  0
 14 52  1  0
 15 53  1  0
 15 54  1  0
 16 55  1  0
 16 56  1  0
 17 57  1  0
 17 58  1  0
 18 59  1  0
 18 60  1  0
 19 61  1  0
 19 62  1  0
 20 63  1  0
 20 64  1  0
 23 65  1  0
M  END
$$$$
