CCCCCC/C=C\C=C\CCCCCCCC(=O)O
     RDKit          3D

 52 51  0  0  0  0  0  0  0  0999 V2000
    6.7344   -1.8124    0.3144 C   0  0  0  0  0  0  0  0  0  0  0  0
    6.1554   -1.2911    1.6181 C   0  0  0  0  0  0  0  0  0  0  0  0
    5.7374    0.1819    1.5817 C   0  0  0  0  0  0  0  0  0  0  0  0
    4.5928    0.4960    0.6113 C   0  0  0  0  0  0  0  0  0  0  0  0
    5.0856    1.0350   -0.7373 C   0  0  0  0  0  0  0  0  0  0  0  0
    3.9507    1.2507   -1.7446 C   0  0  0  0  0  0  0  0  0  0  0  0
    3.0130    2.3563   -1.3448 C   0  0  0  0  0  0  0  0  0  0  0  0
    1.7195    2.2691   -0.9959 C   0  0  0  0  0  0  0  0  0  0  0  0
    0.9361    1.0597   -0.8997 C   0  0  0  0  0  0  0  0  0  0  0  0
   -0.3601    1.0628   -0.5520 C   0  0  0  0  0  0  0  0  0  0  0  0
   -1.1951   -0.1817   -0.4338 C   0  0  0  0  0  0  0  0  0  0  0  0
   -2.3469   -0.1714   -1.4434 C   0  0  0  0  0  0  0  0  0  0  0  0
   -3.2359   -1.4170   -1.3512 C   0  0  0  0  0  0  0  0  0  0  0  0
   -4.5111   -1.2330   -0.5190 C   0  0  0  0  0  0  0  0  0  0  0  0
   -4.2562   -0.9558    0.9612 C   0  0  0  0  0  0  0  0  0  0  0  0
   -5.5160   -1.0237    1.8353 C   0  0  0  0  0  0  0  0  0  0  0  0
   -6.5433    0.0711    1.5436 C   0  0  0  0  0  0  0  0  0  0  0  0
   -7.5025   -0.2854    0.4391 C   0  0  0  0  0  0  0  0  0  0  0  0
   -7.7900   -1.3984    0.0349 O   0  0  0  0  0  0  0  0  0  0  0  0
   -8.0952    0.8056   -0.0850 O   0  0  0  0  0  0  0  0  0  0  0  0
    7.1232   -2.8262    0.4557 H   0  0  0  0  0  0  0  0  0  0  0  0
    5.9719   -1.8609   -0.4684 H   0  0  0  0  0  0  0  0  0  0  0  0
    7.5573   -1.1803   -0.0333 H   0  0  0  0  0  0  0  0  0  0  0  0
    5.2983   -1.9113    1.9061 H   0  0  0  0  0  0  0  0  0  0  0  0
    6.9085   -1.4142    2.4060 H   0  0  0  0  0  0  0  0  0  0  0  0
    5.4011    0.4427    2.5937 H   0  0  0  0  0  0  0  0  0  0  0  0
    6.6078    0.8161    1.3754 H   0  0  0  0  0  0  0  0  0  0  0  0
    3.9605   -0.3875    0.4644 H   0  0  0  0  0  0  0  0  0  0  0  0
    3.9593    1.2606    1.0777 H   0  0  0  0  0  0  0  0  0  0  0  0
    5.6254    1.9774   -0.5792 H   0  0  0  0  0  0  0  0  0  0  0  0
    5.8034    0.3377   -1.1808 H   0  0  0  0  0  0  0  0  0  0  0  0
    4.3913    1.5261   -2.7111 H   0  0  0  0  0  0  0  0  0  0  0  0
    3.4286    0.3043   -1.9149 H   0  0  0  0  0  0  0  0  0  0  0  0
    3.4556    3.3523   -1.3577 H   0  0  0  0  0  0  0  0  0  0  0  0
    1.2035    3.1968   -0.7489 H   0  0  0  0  0  0  0  0  0  0  0  0
    1.4235    0.1130   -1.1135 H   0  0  0  0  0  0  0  0  0  0  0  0
   -0.8635    2.0009   -0.3273 H   0  0  0  0  0  0  0  0  0  0  0  0
   -1.5749   -0.2391    0.5906 H   0  0  0  0  0  0  0  0  0  0  0  0
   -0.5797   -1.0762   -0.5908 H   0  0  0  0  0  0  0  0  0  0  0  0
   -2.9501    0.7387   -1.3377 H   0  0  0  0  0  0  0  0  0  0  0  0
   -1.9128   -0.1382   -2.4519 H   0  0  0  0  0  0  0  0  0  0  0  0
   -3.5554   -1.6761   -2.3690 H   0  0  0  0  0  0  0  0  0  0  0  0
   -2.6653   -2.2773   -0.9818 H   0  0  0  0  0  0  0  0  0  0  0  0
   -5.1017   -0.4193   -0.9549 H   0  0  0  0  0  0  0  0  0  0  0  0
   -5.1086   -2.1478   -0.6154 H   0  0  0  0  0  0  0  0  0  0  0  0
   -3.7971    0.0319    1.0814 H   0  0  0  0  0  0  0  0  0  0  0  0
   -3.5390   -1.6917    1.3452 H   0  0  0  0  0  0  0  0  0  0  0  0
   -5.9670   -2.0201    1.7606 H   0  0  0  0  0  0  0  0  0  0  0  0
   -5.1913   -0.9078    2.8773 H   0  0  0  0  0  0  0  0  0  0  0  0
   -7.1519    0.2400    2.4396 H   0  0  0  0  0  0  0  0  0  0  0  0
   -6.0343    1.0091    1.2958 H   0  0  0  0  0  0  0  0  0  0  0  0
   -8.6992    0.4422   -0.7662 H   0  0  0  0  0  0  0  0  0  0  0  0
  1  2  1  0
  2  3  1  0
  3  4  1  0
  4  5  1  0
  5  6  1  0
  6  7  1  0
  7  8  2  0
  8  9  1  0
  9 10  2  0
 10 11  1  0
 11 12  1  0
 12 13  1  0
 13 14  1  0
 14 15  1  0
 15 16  1  0
 16 17  1  0
 17 18  1  0
 18 19  2  0
 18 20  1  0
  1 21  1  0
  1 22  1  0
  1 23  1  0
  2 24  1  0
  2 25  1  0
  3 26  1  0
  3 27  1  0
  4 28  1  0
  4 29  1  0
  5 30  1  0
  5 31  1  0
  6 32  1  0
  6 33  1  0
  7 34  1  0
  8 35  1  0
  9 36  1  0
 10 37  1  0
 11 38  1  0
 11 39  1  0
 12 40  1  0
 12 41  1  0
 13 42  1  0
 13 43  1  0
 14 44  1  0
 14 45  1  0
 15 46  1  0
 15 47  1  0
 16 48  1  0
 16 49  1  0
 17 50  1  0
 17 51  1  0
 20 52  1  0
M  END
$$$$
