CCCCCC/C=C\CCCCCCCCC(=O)O
     RDKit          3D

 51 50  0  0  0  0  0  0  0  0999 V2000
   -6.9190    1.7884    0.7549 C   0  0  0  0  0  0  0  0  0  0  0  0
   -6.6317    0.5152   -0.0279 C   0  0  0  0  0  0  0  0  0  0  0  0
   -5.6619    0.7279   -1.1937 C   0  0  0  0  0  0  0  0  0  0  0  0
   -4.2002    0.3843   -0.8836 C   0  0  0  0  0  0  0  0  0  0  0  0
   -3.5597    1.2752    0.1827 C   0  0  0  0  0  0  0  0  0  0  0  0
   -2.0465    1.0638    0.3073 C   0  0  0  0  0  0  0  0  0  0  0  0
   -1.6876   -0.2962    0.8382 C   0  0  0  0  0  0  0  0  0  0  0  0
   -1.0011   -1.2583    0.2001 C   0  0  0  0  0  0  0  0  0  0  0  0
   -0.4841   -1.2101   -1.2092 C   0  0  0  0  0  0  0  0  0  0  0  0
    0.9098   -0.5906   -1.3546 C   0  0  0  0  0  0  0  0  0  0  0  0
    2.0857   -1.5151   -1.0166 C   0  0  0  0  0  0  0  0  0  0  0  0
    2.2422   -1.8200    0.4751 C   0  0  0  0  0  0  0  0  0  0  0  0
    3.5767   -2.5011    0.8048 C   0  0  0  0  0  0  0  0  0  0  0  0
    4.6564   -1.5555    1.3434 C   0  0  0  0  0  0  0  0  0  0  0  0
    5.1064   -0.4864    0.3496 C   0  0  0  0  0  0  0  0  0  0  0  0
    6.2695    0.3289    0.9034 C   0  0  0  0  0  0  0  0  0  0  0  0
    6.7095    1.3635   -0.0908 C   0  0  0  0  0  0  0  0  0  0  0  0
    7.6094    1.2455   -0.9051 O   0  0  0  0  0  0  0  0  0  0  0  0
    5.9752    2.4899   -0.0316 O   0  0  0  0  0  0  0  0  0  0  0  0
   -6.0191    2.1972    1.2197 H   0  0  0  0  0  0  0  0  0  0  0  0
   -7.3459    2.5582    0.1037 H   0  0  0  0  0  0  0  0  0  0  0  0
   -7.6429    1.5839    1.5504 H   0  0  0  0  0  0  0  0  0  0  0  0
   -7.5863    0.1580   -0.4339 H   0  0  0  0  0  0  0  0  0  0  0  0
   -6.2664   -0.2672    0.6467 H   0  0  0  0  0  0  0  0  0  0  0  0
   -5.7343    1.7520   -1.5788 H   0  0  0  0  0  0  0  0  0  0  0  0
   -5.9755    0.0695   -2.0143 H   0  0  0  0  0  0  0  0  0  0  0  0
   -4.1370   -0.6676   -0.5801 H   0  0  0  0  0  0  0  0  0  0  0  0
   -3.6292    0.4757   -1.8161 H   0  0  0  0  0  0  0  0  0  0  0  0
   -4.0293    1.0897    1.1555 H   0  0  0  0  0  0  0  0  0  0  0  0
   -3.7404    2.3273   -0.0690 H   0  0  0  0  0  0  0  0  0  0  0  0
   -1.5661    1.2664   -0.6556 H   0  0  0  0  0  0  0  0  0  0  0  0
   -1.6470    1.8088    1.0067 H   0  0  0  0  0  0  0  0  0  0  0  0
   -2.0106   -0.4967    1.8594 H   0  0  0  0  0  0  0  0  0  0  0  0
   -0.8224   -2.1890    0.7360 H   0  0  0  0  0  0  0  0  0  0  0  0
   -0.4908   -2.2254   -1.6242 H   0  0  0  0  0  0  0  0  0  0  0  0
   -1.1861   -0.6411   -1.8309 H   0  0  0  0  0  0  0  0  0  0  0  0
    1.0258   -0.2988   -2.4068 H   0  0  0  0  0  0  0  0  0  0  0  0
    0.9844    0.3362   -0.7725 H   0  0  0  0  0  0  0  0  0  0  0  0
    2.9965   -1.0350   -1.3903 H   0  0  0  0  0  0  0  0  0  0  0  0
    1.9872   -2.4550   -1.5738 H   0  0  0  0  0  0  0  0  0  0  0  0
    2.1171   -0.9111    1.0745 H   0  0  0  0  0  0  0  0  0  0  0  0
    1.4435   -2.5093    0.7687 H   0  0  0  0  0  0  0  0  0  0  0  0
    3.3892   -3.2487    1.5866 H   0  0  0  0  0  0  0  0  0  0  0  0
    3.9573   -3.0537   -0.0625 H   0  0  0  0  0  0  0  0  0  0  0  0
    4.2928   -1.0737    2.2595 H   0  0  0  0  0  0  0  0  0  0  0  0
    5.5230   -2.1627    1.6339 H   0  0  0  0  0  0  0  0  0  0  0  0
    5.4051   -0.9573   -0.5950 H   0  0  0  0  0  0  0  0  0  0  0  0
    4.2734    0.1883    0.1211 H   0  0  0  0  0  0  0  0  0  0  0  0
    7.1296   -0.3131    1.1259 H   0  0  0  0  0  0  0  0  0  0  0  0
    5.9992    0.8275    1.8413 H   0  0  0  0  0  0  0  0  0  0  0  0
    6.3564    3.0593   -0.7324 H   0  0  0  0  0  0  0  0  0  0  0  0
  1  2  1  0
  2  3  1  0
  3  4  1  0
  4  5  1  0
  5  6  1  0
  6  7  1  0
  7  8  2  0
  8  9  1  0
  9 10  1  0
 10 11  1  0
 11 12  1  0
 12 13  1  0
 13 14  1  0
 14 15  1  0
 15 16  1  0
 16 17  1  0
 17 18  2  0
 17 19  1  0
  1 20  1  0
  1 21  1  0
  1 22  1  0
  2 23  1  0
  2 24  1  0
  3 25  1  0
  3 26  1  0
  4 27  1  0
  4 28  1  0
  5 29  1  0
  5 30  1  0
  6 31  1  0
  6 32  1  0
  7 33  1  0
  8 34  1  0
  9 35  1  0
  9 36  1  0
 10 37  1  0
 10 38  1  0
 11 39  1  0
 11 40  1  0
 12 41  1  0
 12 42  1  0
 13 43  1  0
 13 44  1  0
 14 45  1  0
 14 46  1  0
 15 47  1  0
 15 48  1  0
 16 49  1  0
 16 50  1  0
 19 51  1  0
M  END
$$$$
