CCCCCCCCCCCCCCCC(=O)OC
     RDKit          3D

 53 52  0  0  0  0  0  0  0  0999 V2000
    7.6284   -1.4122   -1.7950 C   0  0  0  0  0  0  0  0  0  0  0  0
    6.6116   -1.5599   -0.6744 C   0  0  0  0  0  0  0  0  0  0  0  0
    5.7748   -0.2919   -0.5068 C   0  0  0  0  0  0  0  0  0  0  0  0
    4.7531   -0.4446    0.6213 C   0  0  0  0  0  0  0  0  0  0  0  0
    3.9153    0.8250    0.7891 C   0  0  0  0  0  0  0  0  0  0  0  0
    2.8915    0.6676    1.9152 C   0  0  0  0  0  0  0  0  0  0  0  0
    2.0938    1.9447    2.1948 C   0  0  0  0  0  0  0  0  0  0  0  0
    1.2639    2.4813    1.0239 C   0  0  0  0  0  0  0  0  0  0  0  0
    0.2678    1.4963    0.4020 C   0  0  0  0  0  0  0  0  0  0  0  0
   -0.7987    1.0094    1.3864 C   0  0  0  0  0  0  0  0  0  0  0  0
   -1.7903    0.0162    0.7688 C   0  0  0  0  0  0  0  0  0  0  0  0
   -2.7167    0.6491   -0.2730 C   0  0  0  0  0  0  0  0  0  0  0  0
   -3.7068   -0.3448   -0.8909 C   0  0  0  0  0  0  0  0  0  0  0  0
   -4.7585   -0.8546    0.1001 C   0  0  0  0  0  0  0  0  0  0  0  0
   -5.7753   -1.7836   -0.5591 C   0  0  0  0  0  0  0  0  0  0  0  0
   -6.6832   -1.0601   -1.5216 C   0  0  0  0  0  0  0  0  0  0  0  0
   -6.6497   -1.2041   -2.7361 O   0  0  0  0  0  0  0  0  0  0  0  0
   -7.5356   -0.2389   -0.8491 O   0  0  0  0  0  0  0  0  0  0  0  0
   -8.4276    0.4879   -1.6947 C   0  0  0  0  0  0  0  0  0  0  0  0
    7.1326   -1.2176   -2.7515 H   0  0  0  0  0  0  0  0  0  0  0  0
    8.3193   -0.5878   -1.5918 H   0  0  0  0  0  0  0  0  0  0  0  0
    8.2156   -2.3302   -1.8974 H   0  0  0  0  0  0  0  0  0  0  0  0
    7.1373   -1.7856    0.2607 H   0  0  0  0  0  0  0  0  0  0  0  0
    5.9572   -2.4119   -0.8926 H   0  0  0  0  0  0  0  0  0  0  0  0
    6.4343    0.5580   -0.2927 H   0  0  0  0  0  0  0  0  0  0  0  0
    5.2545   -0.0683   -1.4462 H   0  0  0  0  0  0  0  0  0  0  0  0
    5.2739   -0.6684    1.5602 H   0  0  0  0  0  0  0  0  0  0  0  0
    4.0932   -1.2940    0.4068 H   0  0  0  0  0  0  0  0  0  0  0  0
    3.4049    1.0441   -0.1554 H   0  0  0  0  0  0  0  0  0  0  0  0
    4.5744    1.6737    1.0077 H   0  0  0  0  0  0  0  0  0  0  0  0
    2.2102   -0.1599    1.6867 H   0  0  0  0  0  0  0  0  0  0  0  0
    3.4156    0.3874    2.8378 H   0  0  0  0  0  0  0  0  0  0  0  0
    1.4365    1.7648    3.0537 H   0  0  0  0  0  0  0  0  0  0  0  0
    2.7887    2.7329    2.5116 H   0  0  0  0  0  0  0  0  0  0  0  0
    0.7159    3.3672    1.3692 H   0  0  0  0  0  0  0  0  0  0  0  0
    1.9391    2.8365    0.2361 H   0  0  0  0  0  0  0  0  0  0  0  0
   -0.2145    2.0074   -0.4388 H   0  0  0  0  0  0  0  0  0  0  0  0
    0.8013    0.6390   -0.0237 H   0  0  0  0  0  0  0  0  0  0  0  0
   -1.3440    1.8668    1.7988 H   0  0  0  0  0  0  0  0  0  0  0  0
   -0.3129    0.5067    2.2303 H   0  0  0  0  0  0  0  0  0  0  0  0
   -2.3905   -0.3995    1.5858 H   0  0  0  0  0  0  0  0  0  0  0  0
   -1.2418   -0.8208    0.3202 H   0  0  0  0  0  0  0  0  0  0  0  0
   -2.1182    1.0673   -1.0898 H   0  0  0  0  0  0  0  0  0  0  0  0
   -3.2667    1.4843    0.1770 H   0  0  0  0  0  0  0  0  0  0  0  0
   -4.2092    0.1591   -1.7253 H   0  0  0  0  0  0  0  0  0  0  0  0
   -3.1582   -1.1927   -1.3187 H   0  0  0  0  0  0  0  0  0  0  0  0
   -4.2665   -1.4121    0.9045 H   0  0  0  0  0  0  0  0  0  0  0  0
   -5.2692   -0.0025    0.5641 H   0  0  0  0  0  0  0  0  0  0  0  0
   -5.2687   -2.5918   -1.0991 H   0  0  0  0  0  0  0  0  0  0  0  0
   -6.4035   -2.2631    0.2008 H   0  0  0  0  0  0  0  0  0  0  0  0
   -9.0705   -0.1988   -2.2543 H   0  0  0  0  0  0  0  0  0  0  0  0
   -7.8675    1.1374   -2.3748 H   0  0  0  0  0  0  0  0  0  0  0  0
   -9.0603    1.1149   -1.0604 H   0  0  0  0  0  0  0  0  0  0  0  0
  1  2  1  0
  2  3  1  0
  3  4  1  0
  4  5  1  0
  5  6  1  0
  6  7  1  0
  7  8  1  0
  8  9  1  0
  9 10  1  0
 10 11  1  0
 11 12  1  0
 12 13  1  0
 13 14  1  0
 14 15  1  0
 15 16  1  0
 16 17  2  0
 16 18  1  0
 18 19  1  0
  1 20  1  0
  1 21  1  0
  1 22  1  0
  2 23  1  0
  2 24  1  0
  3 25  1  0
  3 26  1  0
  4 27  1  0
  4 28  1  0
  5 29  1  0
  5 30  1  0
  6 31  1  0
  6 32  1  0
  7 33  1  0
  7 34  1  0
  8 35  1  0
  8 36  1  0
  9 37  1  0
  9 38  1  0
 10 39  1  0
 10 40  1  0
 11 41  1  0
 11 42  1  0
 12 43  1  0
 12 44  1  0
 13 45  1  0
 13 46  1  0
 14 47  1  0
 14 48  1  0
 15 49  1  0
 15 50  1  0
 19 51  1  0
 19 52  1  0
 19 53  1  0
M  END
$$$$
