CC/C=C\C/C=C\C/C=C\C/C=C\CCC(=O)OC
     RDKit          3D

 45 44  0  0  0  0  0  0  0  0999 V2000
    6.5206    2.1278    1.8817 C   0  0  0  0  0  0  0  0  0  0  0  0
    6.0579    2.6563    0.5327 C   0  0  0  0  0  0  0  0  0  0  0  0
    5.7508    1.5332   -0.4150 C   0  0  0  0  0  0  0  0  0  0  0  0
    4.5526    1.1742   -0.9054 C   0  0  0  0  0  0  0  0  0  0  0  0
    3.2133    1.7946   -0.6284 C   0  0  0  0  0  0  0  0  0  0  0  0
    2.3180    0.8282    0.0929 C   0  0  0  0  0  0  0  0  0  0  0  0
    1.1974    0.2397   -0.3593 C   0  0  0  0  0  0  0  0  0  0  0  0
    0.5516    0.3887   -1.7067 C   0  0  0  0  0  0  0  0  0  0  0  0
    0.5465   -0.9210   -2.4415 C   0  0  0  0  0  0  0  0  0  0  0  0
   -0.5101   -1.6917   -2.7521 C   0  0  0  0  0  0  0  0  0  0  0  0
   -1.9583   -1.4388   -2.4470 C   0  0  0  0  0  0  0  0  0  0  0  0
   -2.4904   -2.4489   -1.4707 C   0  0  0  0  0  0  0  0  0  0  0  0
   -2.8749   -2.2384   -0.2007 C   0  0  0  0  0  0  0  0  0  0  0  0
   -2.8161   -0.9463    0.5683 C   0  0  0  0  0  0  0  0  0  0  0  0
   -4.1790   -0.2687    0.6848 C   0  0  0  0  0  0  0  0  0  0  0  0
   -5.1178   -0.9901    1.6227 C   0  0  0  0  0  0  0  0  0  0  0  0
   -4.7965   -1.8461    2.4345 O   0  0  0  0  0  0  0  0  0  0  0  0
   -6.3844   -0.5129    1.4511 O   0  0  0  0  0  0  0  0  0  0  0  0
   -7.3545   -1.1214    2.3044 C   0  0  0  0  0  0  0  0  0  0  0  0
    7.4152    1.5042    1.7790 H   0  0  0  0  0  0  0  0  0  0  0  0
    5.7389    1.5276    2.3597 H   0  0  0  0  0  0  0  0  0  0  0  0
    6.7646    2.9597    2.5500 H   0  0  0  0  0  0  0  0  0  0  0  0
    6.8509    3.2729    0.0937 H   0  0  0  0  0  0  0  0  0  0  0  0
    5.2005    3.3182    0.6814 H   0  0  0  0  0  0  0  0  0  0  0  0
    6.6163    0.9524   -0.7347 H   0  0  0  0  0  0  0  0  0  0  0  0
    4.5262    0.3270   -1.5913 H   0  0  0  0  0  0  0  0  0  0  0  0
    2.7846    2.1199   -1.5807 H   0  0  0  0  0  0  0  0  0  0  0  0
    3.2959    2.6979   -0.0171 H   0  0  0  0  0  0  0  0  0  0  0  0
    2.6343    0.5885    1.1084 H   0  0  0  0  0  0  0  0  0  0  0  0
    0.6787   -0.4373    0.3205 H   0  0  0  0  0  0  0  0  0  0  0  0
    1.0664    1.1236   -2.3321 H   0  0  0  0  0  0  0  0  0  0  0  0
   -0.4587    0.7806   -1.5592 H   0  0  0  0  0  0  0  0  0  0  0  0
    1.5318   -1.2751   -2.7451 H   0  0  0  0  0  0  0  0  0  0  0  0
   -0.3093   -2.6185   -3.2893 H   0  0  0  0  0  0  0  0  0  0  0  0
   -2.5271   -1.5315   -3.3806 H   0  0  0  0  0  0  0  0  0  0  0  0
   -2.1362   -0.4171   -2.1043 H   0  0  0  0  0  0  0  0  0  0  0  0
   -2.5832   -3.4625   -1.8604 H   0  0  0  0  0  0  0  0  0  0  0  0
   -3.2489   -3.0942    0.3633 H   0  0  0  0  0  0  0  0  0  0  0  0
   -2.4011   -1.1534    1.5623 H   0  0  0  0  0  0  0  0  0  0  0  0
   -2.1171   -0.2492    0.0955 H   0  0  0  0  0  0  0  0  0  0  0  0
   -4.0441    0.7449    1.0792 H   0  0  0  0  0  0  0  0  0  0  0  0
   -4.6471   -0.1969   -0.3040 H   0  0  0  0  0  0  0  0  0  0  0  0
   -7.4116   -2.1978    2.1143 H   0  0  0  0  0  0  0  0  0  0  0  0
   -7.1181   -0.9241    3.3547 H   0  0  0  0  0  0  0  0  0  0  0  0
   -8.3287   -0.6784    2.0797 H   0  0  0  0  0  0  0  0  0  0  0  0
  1  2  1  0
  2  3  1  0
  3  4  2  0
  4  5  1  0
  5  6  1  0
  6  7  2  0
  7  8  1  0
  8  9  1  0
  9 10  2  0
 10 11  1  0
 11 12  1  0
 12 13  2  0
 13 14  1  0
 14 15  1  0
 15 16  1  0
 16 17  2  0
 16 18  1  0
 18 19  1  0
  1 20  1  0
  1 21  1  0
  1 22  1  0
  2 23  1  0
  2 24  1  0
  3 25  1  0
  4 26  1  0
  5 27  1  0
  5 28  1  0
  6 29  1  0
  7 30  1  0
  8 31  1  0
  8 32  1  0
  9 33  1  0
 10 34  1  0
 11 35  1  0
 11 36  1  0
 12 37  1  0
 13 38  1  0
 14 39  1  0
 14 40  1  0
 15 41  1  0
 15 42  1  0
 19 43  1  0
 19 44  1  0
 19 45  1  0
M  END
$$$$
