CCC=CCC=CCC=CCCCCCCCC(=O)OC
     RDKit          3D

 53 52  0  0  0  0  0  0  0  0999 V2000
   -8.5585   -1.4053   -1.6604 C   0  0  0  0  0  0  0  0  0  0  0  0
   -7.6019   -0.5538   -0.8411 C   0  0  0  0  0  0  0  0  0  0  0  0
   -6.9711   -1.3500    0.2644 C   0  0  0  0  0  0  0  0  0  0  0  0
   -5.6884   -1.7392    0.3561 C   0  0  0  0  0  0  0  0  0  0  0  0
   -4.5923   -1.5197   -0.6467 C   0  0  0  0  0  0  0  0  0  0  0  0
   -3.6051   -0.4989   -0.1588 C   0  0  0  0  0  0  0  0  0  0  0  0
   -3.3737    0.6761   -0.7705 C   0  0  0  0  0  0  0  0  0  0  0  0
   -2.4047    1.7548   -0.3631 C   0  0  0  0  0  0  0  0  0  0  0  0
   -1.7196    1.5338    0.9560 C   0  0  0  0  0  0  0  0  0  0  0  0
   -0.4322    1.2107    1.1642 C   0  0  0  0  0  0  0  0  0  0  0  0
    0.6103    0.9324    0.1182 C   0  0  0  0  0  0  0  0  0  0  0  0
    1.5726    2.1036   -0.1043 C   0  0  0  0  0  0  0  0  0  0  0  0
    2.4008    2.5203    1.1143 C   0  0  0  0  0  0  0  0  0  0  0  0
    3.3133    1.4482    1.7205 C   0  0  0  0  0  0  0  0  0  0  0  0
    4.4851    1.0207    0.8281 C   0  0  0  0  0  0  0  0  0  0  0  0
    4.1978   -0.2402    0.0050 C   0  0  0  0  0  0  0  0  0  0  0  0
    5.4010   -0.6729   -0.8347 C   0  0  0  0  0  0  0  0  0  0  0  0
    6.5152   -1.2788   -0.0116 C   0  0  0  0  0  0  0  0  0  0  0  0
    6.4125   -1.6771    1.1397 O   0  0  0  0  0  0  0  0  0  0  0  0
    7.6513   -1.3421   -0.7633 O   0  0  0  0  0  0  0  0  0  0  0  0
    8.7668   -1.9163   -0.0809 C   0  0  0  0  0  0  0  0  0  0  0  0
   -8.0328   -2.2353   -2.1444 H   0  0  0  0  0  0  0  0  0  0  0  0
   -9.3541   -1.8235   -1.0345 H   0  0  0  0  0  0  0  0  0  0  0  0
   -9.0279   -0.8001   -2.4426 H   0  0  0  0  0  0  0  0  0  0  0  0
   -8.1525    0.2824   -0.3942 H   0  0  0  0  0  0  0  0  0  0  0  0
   -6.8534   -0.1069   -1.5024 H   0  0  0  0  0  0  0  0  0  0  0  0
   -7.6377   -1.6109    1.0861 H   0  0  0  0  0  0  0  0  0  0  0  0
   -5.3934   -2.2944    1.2460 H   0  0  0  0  0  0  0  0  0  0  0  0
   -4.0662   -2.4700   -0.7986 H   0  0  0  0  0  0  0  0  0  0  0  0
   -4.9925   -1.2444   -1.6280 H   0  0  0  0  0  0  0  0  0  0  0  0
   -3.0517   -0.7650    0.7388 H   0  0  0  0  0  0  0  0  0  0  0  0
   -3.9375    0.9063   -1.6736 H   0  0  0  0  0  0  0  0  0  0  0  0
   -2.9574    2.7002   -0.2944 H   0  0  0  0  0  0  0  0  0  0  0  0
   -1.6791    1.8927   -1.1716 H   0  0  0  0  0  0  0  0  0  0  0  0
   -2.3535    1.6779    1.8306 H   0  0  0  0  0  0  0  0  0  0  0  0
   -0.0980    1.1067    2.1960 H   0  0  0  0  0  0  0  0  0  0  0  0
    0.1406    0.6794   -0.8388 H   0  0  0  0  0  0  0  0  0  0  0  0
    1.1614    0.0327    0.4131 H   0  0  0  0  0  0  0  0  0  0  0  0
    0.9943    2.9762   -0.4363 H   0  0  0  0  0  0  0  0  0  0  0  0
    2.2442    1.8630   -0.9357 H   0  0  0  0  0  0  0  0  0  0  0  0
    1.7252    2.8803    1.9000 H   0  0  0  0  0  0  0  0  0  0  0  0
    3.0135    3.3864    0.8331 H   0  0  0  0  0  0  0  0  0  0  0  0
    2.7342    0.5800    2.0529 H   0  0  0  0  0  0  0  0  0  0  0  0
    3.7422    1.8859    2.6320 H   0  0  0  0  0  0  0  0  0  0  0  0
    5.3430    0.8188    1.4813 H   0  0  0  0  0  0  0  0  0  0  0  0
    4.7857    1.8442    0.1697 H   0  0  0  0  0  0  0  0  0  0  0  0
    3.3633   -0.0543   -0.6769 H   0  0  0  0  0  0  0  0  0  0  0  0
    3.8895   -1.0556    0.6703 H   0  0  0  0  0  0  0  0  0  0  0  0
    5.0811   -1.4352   -1.5542 H   0  0  0  0  0  0  0  0  0  0  0  0
    5.7915    0.1869   -1.3906 H   0  0  0  0  0  0  0  0  0  0  0  0
    8.5524   -2.9523    0.1996 H   0  0  0  0  0  0  0  0  0  0  0  0
    9.6204   -1.9124   -0.7643 H   0  0  0  0  0  0  0  0  0  0  0  0
    9.0258   -1.3206    0.8000 H   0  0  0  0  0  0  0  0  0  0  0  0
  1  2  1  0
  2  3  1  0
  3  4  2  3
  4  5  1  0
  5  6  1  0
  6  7  2  3
  7  8  1  0
  8  9  1  0
  9 10  2  3
 10 11  1  0
 11 12  1  0
 12 13  1  0
 13 14  1  0
 14 15  1  0
 15 16  1  0
 16 17  1  0
 17 18  1  0
 18 19  2  0
 18 20  1  0
 20 21  1  0
  1 22  1  0
  1 23  1  0
  1 24  1  0
  2 25  1  0
  2 26  1  0
  3 27  1  0
  4 28  1  0
  5 29  1  0
  5 30  1  0
  6 31  1  0
  7 32  1  0
  8 33  1  0
  8 34  1  0
  9 35  1  0
 10 36  1  0
 11 37  1  0
 11 38  1  0
 12 39  1  0
 12 40  1  0
 13 41  1  0
 13 42  1  0
 14 43  1  0
 14 44  1  0
 15 45  1  0
 15 46  1  0
 16 47  1  0
 16 48  1  0
 17 49  1  0
 17 50  1  0
 21 51  1  0
 21 52  1  0
 21 53  1  0
M  END
$$$$
